*SPEF "ieee 1481-1999"
*DESIGN "tt_um_wokwi_387720610194863105"
*DATE "11:11:11 Fri 11 11, 1111"
*VENDOR "OpenRCX"
*PROGRAM "Parallel Extraction"
*VERSION "1.0"
*DESIGN_FLOW "NAME_SCOPE LOCAL" "PIN_CAP NONE"
*DIVIDER /
*DELIMITER :
*BUS_DELIMITER []
*T_UNIT 1 NS
*C_UNIT 1 PF
*R_UNIT 1 OHM
*L_UNIT 1 HENRY

*NAME_MAP
*3 clk
*4 ena
*5 rst_n
*6 ui_in[0]
*7 ui_in[1]
*8 ui_in[2]
*9 ui_in[3]
*10 ui_in[4]
*11 ui_in[5]
*12 ui_in[6]
*13 ui_in[7]
*14 uio_in[0]
*15 uio_in[1]
*16 uio_in[2]
*17 uio_in[3]
*18 uio_in[4]
*19 uio_in[5]
*20 uio_in[6]
*21 uio_in[7]
*22 net9
*23 net10
*24 net11
*25 net12
*26 net13
*27 net14
*28 net15
*29 net16
*30 net17
*31 net18
*32 net19
*33 net20
*34 net21
*35 net22
*36 net23
*37 net24
*38 uo_out[0]
*39 uo_out[1]
*40 uo_out[2]
*41 uo_out[3]
*42 uo_out[4]
*43 uo_out[5]
*44 uo_out[6]
*45 uo_out[7]
*46 net1
*47 net2
*48 net3
*49 net4
*50 net5
*51 net6
*52 net7
*53 net8
*54 not1\.out
*55 not2\.out
*56 not3\.out
*57 not4\.out
*58 FILLER_0_0_109
*59 FILLER_0_0_113
*60 FILLER_0_0_125
*61 FILLER_0_0_137
*62 FILLER_0_0_141
*63 FILLER_0_0_15
*64 FILLER_0_0_153
*65 FILLER_0_0_165
*66 FILLER_0_0_169
*67 FILLER_0_0_181
*68 FILLER_0_0_193
*69 FILLER_0_0_197
*70 FILLER_0_0_209
*71 FILLER_0_0_221
*72 FILLER_0_0_225
*73 FILLER_0_0_237
*74 FILLER_0_0_249
*75 FILLER_0_0_253
*76 FILLER_0_0_265
*77 FILLER_0_0_27
*78 FILLER_0_0_277
*79 FILLER_0_0_281
*80 FILLER_0_0_29
*81 FILLER_0_0_293
*82 FILLER_0_0_3
*83 FILLER_0_0_305
*84 FILLER_0_0_309
*85 FILLER_0_0_321
*86 FILLER_0_0_333
*87 FILLER_0_0_41
*88 FILLER_0_0_53
*89 FILLER_0_0_57
*90 FILLER_0_0_69
*91 FILLER_0_0_81
*92 FILLER_0_0_85
*93 FILLER_0_0_97
*94 FILLER_0_10_109
*95 FILLER_0_10_121
*96 FILLER_0_10_133
*97 FILLER_0_10_139
*98 FILLER_0_10_141
*99 FILLER_0_10_15
*100 FILLER_0_10_153
*101 FILLER_0_10_165
*102 FILLER_0_10_177
*103 FILLER_0_10_189
*104 FILLER_0_10_195
*105 FILLER_0_10_197
*106 FILLER_0_10_209
*107 FILLER_0_10_221
*108 FILLER_0_10_233
*109 FILLER_0_10_245
*110 FILLER_0_10_251
*111 FILLER_0_10_253
*112 FILLER_0_10_265
*113 FILLER_0_10_27
*114 FILLER_0_10_277
*115 FILLER_0_10_289
*116 FILLER_0_10_29
*117 FILLER_0_10_3
*118 FILLER_0_10_301
*119 FILLER_0_10_307
*120 FILLER_0_10_309
*121 FILLER_0_10_321
*122 FILLER_0_10_333
*123 FILLER_0_10_41
*124 FILLER_0_10_53
*125 FILLER_0_10_65
*126 FILLER_0_10_77
*127 FILLER_0_10_83
*128 FILLER_0_10_85
*129 FILLER_0_10_97
*130 FILLER_0_11_105
*131 FILLER_0_11_111
*132 FILLER_0_11_113
*133 FILLER_0_11_125
*134 FILLER_0_11_137
*135 FILLER_0_11_149
*136 FILLER_0_11_15
*137 FILLER_0_11_161
*138 FILLER_0_11_167
*139 FILLER_0_11_169
*140 FILLER_0_11_181
*141 FILLER_0_11_193
*142 FILLER_0_11_205
*143 FILLER_0_11_217
*144 FILLER_0_11_223
*145 FILLER_0_11_225
*146 FILLER_0_11_237
*147 FILLER_0_11_249
*148 FILLER_0_11_261
*149 FILLER_0_11_27
*150 FILLER_0_11_273
*151 FILLER_0_11_279
*152 FILLER_0_11_281
*153 FILLER_0_11_293
*154 FILLER_0_11_3
*155 FILLER_0_11_305
*156 FILLER_0_11_317
*157 FILLER_0_11_329
*158 FILLER_0_11_39
*159 FILLER_0_11_51
*160 FILLER_0_11_55
*161 FILLER_0_11_57
*162 FILLER_0_11_69
*163 FILLER_0_11_81
*164 FILLER_0_11_93
*165 FILLER_0_12_109
*166 FILLER_0_12_121
*167 FILLER_0_12_133
*168 FILLER_0_12_139
*169 FILLER_0_12_141
*170 FILLER_0_12_15
*171 FILLER_0_12_153
*172 FILLER_0_12_165
*173 FILLER_0_12_177
*174 FILLER_0_12_189
*175 FILLER_0_12_195
*176 FILLER_0_12_197
*177 FILLER_0_12_209
*178 FILLER_0_12_221
*179 FILLER_0_12_233
*180 FILLER_0_12_245
*181 FILLER_0_12_251
*182 FILLER_0_12_253
*183 FILLER_0_12_265
*184 FILLER_0_12_27
*185 FILLER_0_12_277
*186 FILLER_0_12_289
*187 FILLER_0_12_29
*188 FILLER_0_12_3
*189 FILLER_0_12_301
*190 FILLER_0_12_307
*191 FILLER_0_12_309
*192 FILLER_0_12_321
*193 FILLER_0_12_333
*194 FILLER_0_12_41
*195 FILLER_0_12_53
*196 FILLER_0_12_65
*197 FILLER_0_12_77
*198 FILLER_0_12_83
*199 FILLER_0_12_85
*200 FILLER_0_12_97
*201 FILLER_0_13_105
*202 FILLER_0_13_111
*203 FILLER_0_13_113
*204 FILLER_0_13_125
*205 FILLER_0_13_137
*206 FILLER_0_13_149
*207 FILLER_0_13_15
*208 FILLER_0_13_161
*209 FILLER_0_13_167
*210 FILLER_0_13_169
*211 FILLER_0_13_181
*212 FILLER_0_13_193
*213 FILLER_0_13_205
*214 FILLER_0_13_217
*215 FILLER_0_13_223
*216 FILLER_0_13_225
*217 FILLER_0_13_237
*218 FILLER_0_13_249
*219 FILLER_0_13_261
*220 FILLER_0_13_27
*221 FILLER_0_13_273
*222 FILLER_0_13_279
*223 FILLER_0_13_281
*224 FILLER_0_13_293
*225 FILLER_0_13_3
*226 FILLER_0_13_305
*227 FILLER_0_13_317
*228 FILLER_0_13_329
*229 FILLER_0_13_39
*230 FILLER_0_13_51
*231 FILLER_0_13_55
*232 FILLER_0_13_57
*233 FILLER_0_13_69
*234 FILLER_0_13_81
*235 FILLER_0_13_93
*236 FILLER_0_14_109
*237 FILLER_0_14_121
*238 FILLER_0_14_133
*239 FILLER_0_14_139
*240 FILLER_0_14_141
*241 FILLER_0_14_15
*242 FILLER_0_14_153
*243 FILLER_0_14_165
*244 FILLER_0_14_177
*245 FILLER_0_14_189
*246 FILLER_0_14_195
*247 FILLER_0_14_197
*248 FILLER_0_14_209
*249 FILLER_0_14_221
*250 FILLER_0_14_233
*251 FILLER_0_14_245
*252 FILLER_0_14_251
*253 FILLER_0_14_253
*254 FILLER_0_14_265
*255 FILLER_0_14_27
*256 FILLER_0_14_277
*257 FILLER_0_14_289
*258 FILLER_0_14_29
*259 FILLER_0_14_3
*260 FILLER_0_14_301
*261 FILLER_0_14_307
*262 FILLER_0_14_309
*263 FILLER_0_14_321
*264 FILLER_0_14_333
*265 FILLER_0_14_41
*266 FILLER_0_14_53
*267 FILLER_0_14_65
*268 FILLER_0_14_77
*269 FILLER_0_14_83
*270 FILLER_0_14_85
*271 FILLER_0_14_97
*272 FILLER_0_15_105
*273 FILLER_0_15_111
*274 FILLER_0_15_113
*275 FILLER_0_15_125
*276 FILLER_0_15_137
*277 FILLER_0_15_149
*278 FILLER_0_15_15
*279 FILLER_0_15_161
*280 FILLER_0_15_167
*281 FILLER_0_15_169
*282 FILLER_0_15_181
*283 FILLER_0_15_193
*284 FILLER_0_15_205
*285 FILLER_0_15_217
*286 FILLER_0_15_223
*287 FILLER_0_15_225
*288 FILLER_0_15_237
*289 FILLER_0_15_249
*290 FILLER_0_15_261
*291 FILLER_0_15_27
*292 FILLER_0_15_273
*293 FILLER_0_15_279
*294 FILLER_0_15_281
*295 FILLER_0_15_293
*296 FILLER_0_15_3
*297 FILLER_0_15_305
*298 FILLER_0_15_317
*299 FILLER_0_15_329
*300 FILLER_0_15_39
*301 FILLER_0_15_51
*302 FILLER_0_15_55
*303 FILLER_0_15_57
*304 FILLER_0_15_69
*305 FILLER_0_15_81
*306 FILLER_0_15_93
*307 FILLER_0_16_109
*308 FILLER_0_16_121
*309 FILLER_0_16_133
*310 FILLER_0_16_139
*311 FILLER_0_16_141
*312 FILLER_0_16_15
*313 FILLER_0_16_153
*314 FILLER_0_16_165
*315 FILLER_0_16_177
*316 FILLER_0_16_189
*317 FILLER_0_16_195
*318 FILLER_0_16_197
*319 FILLER_0_16_209
*320 FILLER_0_16_221
*321 FILLER_0_16_233
*322 FILLER_0_16_245
*323 FILLER_0_16_251
*324 FILLER_0_16_253
*325 FILLER_0_16_265
*326 FILLER_0_16_27
*327 FILLER_0_16_277
*328 FILLER_0_16_289
*329 FILLER_0_16_29
*330 FILLER_0_16_3
*331 FILLER_0_16_301
*332 FILLER_0_16_307
*333 FILLER_0_16_309
*334 FILLER_0_16_321
*335 FILLER_0_16_333
*336 FILLER_0_16_41
*337 FILLER_0_16_53
*338 FILLER_0_16_65
*339 FILLER_0_16_77
*340 FILLER_0_16_83
*341 FILLER_0_16_85
*342 FILLER_0_16_97
*343 FILLER_0_17_105
*344 FILLER_0_17_111
*345 FILLER_0_17_113
*346 FILLER_0_17_125
*347 FILLER_0_17_137
*348 FILLER_0_17_149
*349 FILLER_0_17_15
*350 FILLER_0_17_161
*351 FILLER_0_17_167
*352 FILLER_0_17_169
*353 FILLER_0_17_181
*354 FILLER_0_17_193
*355 FILLER_0_17_205
*356 FILLER_0_17_217
*357 FILLER_0_17_223
*358 FILLER_0_17_225
*359 FILLER_0_17_237
*360 FILLER_0_17_249
*361 FILLER_0_17_261
*362 FILLER_0_17_27
*363 FILLER_0_17_273
*364 FILLER_0_17_279
*365 FILLER_0_17_281
*366 FILLER_0_17_293
*367 FILLER_0_17_3
*368 FILLER_0_17_305
*369 FILLER_0_17_317
*370 FILLER_0_17_329
*371 FILLER_0_17_39
*372 FILLER_0_17_51
*373 FILLER_0_17_55
*374 FILLER_0_17_57
*375 FILLER_0_17_69
*376 FILLER_0_17_81
*377 FILLER_0_17_93
*378 FILLER_0_18_109
*379 FILLER_0_18_121
*380 FILLER_0_18_133
*381 FILLER_0_18_139
*382 FILLER_0_18_141
*383 FILLER_0_18_15
*384 FILLER_0_18_153
*385 FILLER_0_18_165
*386 FILLER_0_18_177
*387 FILLER_0_18_189
*388 FILLER_0_18_195
*389 FILLER_0_18_197
*390 FILLER_0_18_209
*391 FILLER_0_18_221
*392 FILLER_0_18_233
*393 FILLER_0_18_245
*394 FILLER_0_18_251
*395 FILLER_0_18_253
*396 FILLER_0_18_265
*397 FILLER_0_18_27
*398 FILLER_0_18_277
*399 FILLER_0_18_289
*400 FILLER_0_18_29
*401 FILLER_0_18_3
*402 FILLER_0_18_301
*403 FILLER_0_18_307
*404 FILLER_0_18_309
*405 FILLER_0_18_321
*406 FILLER_0_18_333
*407 FILLER_0_18_41
*408 FILLER_0_18_53
*409 FILLER_0_18_65
*410 FILLER_0_18_77
*411 FILLER_0_18_83
*412 FILLER_0_18_85
*413 FILLER_0_18_97
*414 FILLER_0_19_105
*415 FILLER_0_19_111
*416 FILLER_0_19_113
*417 FILLER_0_19_125
*418 FILLER_0_19_137
*419 FILLER_0_19_149
*420 FILLER_0_19_15
*421 FILLER_0_19_161
*422 FILLER_0_19_167
*423 FILLER_0_19_169
*424 FILLER_0_19_181
*425 FILLER_0_19_193
*426 FILLER_0_19_205
*427 FILLER_0_19_217
*428 FILLER_0_19_223
*429 FILLER_0_19_225
*430 FILLER_0_19_237
*431 FILLER_0_19_249
*432 FILLER_0_19_261
*433 FILLER_0_19_27
*434 FILLER_0_19_273
*435 FILLER_0_19_279
*436 FILLER_0_19_281
*437 FILLER_0_19_293
*438 FILLER_0_19_3
*439 FILLER_0_19_305
*440 FILLER_0_19_317
*441 FILLER_0_19_329
*442 FILLER_0_19_39
*443 FILLER_0_19_51
*444 FILLER_0_19_55
*445 FILLER_0_19_57
*446 FILLER_0_19_69
*447 FILLER_0_19_81
*448 FILLER_0_19_93
*449 FILLER_0_1_105
*450 FILLER_0_1_111
*451 FILLER_0_1_113
*452 FILLER_0_1_125
*453 FILLER_0_1_137
*454 FILLER_0_1_149
*455 FILLER_0_1_15
*456 FILLER_0_1_161
*457 FILLER_0_1_167
*458 FILLER_0_1_169
*459 FILLER_0_1_181
*460 FILLER_0_1_193
*461 FILLER_0_1_205
*462 FILLER_0_1_217
*463 FILLER_0_1_223
*464 FILLER_0_1_225
*465 FILLER_0_1_237
*466 FILLER_0_1_249
*467 FILLER_0_1_261
*468 FILLER_0_1_27
*469 FILLER_0_1_273
*470 FILLER_0_1_279
*471 FILLER_0_1_281
*472 FILLER_0_1_293
*473 FILLER_0_1_3
*474 FILLER_0_1_305
*475 FILLER_0_1_317
*476 FILLER_0_1_329
*477 FILLER_0_1_39
*478 FILLER_0_1_51
*479 FILLER_0_1_55
*480 FILLER_0_1_57
*481 FILLER_0_1_69
*482 FILLER_0_1_81
*483 FILLER_0_1_93
*484 FILLER_0_20_109
*485 FILLER_0_20_121
*486 FILLER_0_20_133
*487 FILLER_0_20_139
*488 FILLER_0_20_141
*489 FILLER_0_20_15
*490 FILLER_0_20_153
*491 FILLER_0_20_165
*492 FILLER_0_20_177
*493 FILLER_0_20_189
*494 FILLER_0_20_195
*495 FILLER_0_20_197
*496 FILLER_0_20_209
*497 FILLER_0_20_221
*498 FILLER_0_20_233
*499 FILLER_0_20_245
*500 FILLER_0_20_251
*501 FILLER_0_20_253
*502 FILLER_0_20_265
*503 FILLER_0_20_27
*504 FILLER_0_20_277
*505 FILLER_0_20_289
*506 FILLER_0_20_29
*507 FILLER_0_20_3
*508 FILLER_0_20_301
*509 FILLER_0_20_307
*510 FILLER_0_20_309
*511 FILLER_0_20_321
*512 FILLER_0_20_333
*513 FILLER_0_20_41
*514 FILLER_0_20_53
*515 FILLER_0_20_65
*516 FILLER_0_20_77
*517 FILLER_0_20_83
*518 FILLER_0_20_85
*519 FILLER_0_20_97
*520 FILLER_0_21_105
*521 FILLER_0_21_111
*522 FILLER_0_21_113
*523 FILLER_0_21_125
*524 FILLER_0_21_137
*525 FILLER_0_21_149
*526 FILLER_0_21_15
*527 FILLER_0_21_161
*528 FILLER_0_21_167
*529 FILLER_0_21_169
*530 FILLER_0_21_181
*531 FILLER_0_21_193
*532 FILLER_0_21_205
*533 FILLER_0_21_217
*534 FILLER_0_21_223
*535 FILLER_0_21_225
*536 FILLER_0_21_237
*537 FILLER_0_21_249
*538 FILLER_0_21_261
*539 FILLER_0_21_27
*540 FILLER_0_21_273
*541 FILLER_0_21_279
*542 FILLER_0_21_281
*543 FILLER_0_21_293
*544 FILLER_0_21_3
*545 FILLER_0_21_305
*546 FILLER_0_21_317
*547 FILLER_0_21_329
*548 FILLER_0_21_39
*549 FILLER_0_21_51
*550 FILLER_0_21_55
*551 FILLER_0_21_57
*552 FILLER_0_21_69
*553 FILLER_0_21_81
*554 FILLER_0_21_93
*555 FILLER_0_22_109
*556 FILLER_0_22_121
*557 FILLER_0_22_133
*558 FILLER_0_22_139
*559 FILLER_0_22_141
*560 FILLER_0_22_15
*561 FILLER_0_22_153
*562 FILLER_0_22_165
*563 FILLER_0_22_177
*564 FILLER_0_22_189
*565 FILLER_0_22_195
*566 FILLER_0_22_197
*567 FILLER_0_22_209
*568 FILLER_0_22_221
*569 FILLER_0_22_233
*570 FILLER_0_22_245
*571 FILLER_0_22_251
*572 FILLER_0_22_253
*573 FILLER_0_22_265
*574 FILLER_0_22_27
*575 FILLER_0_22_277
*576 FILLER_0_22_289
*577 FILLER_0_22_29
*578 FILLER_0_22_3
*579 FILLER_0_22_301
*580 FILLER_0_22_307
*581 FILLER_0_22_309
*582 FILLER_0_22_321
*583 FILLER_0_22_333
*584 FILLER_0_22_41
*585 FILLER_0_22_53
*586 FILLER_0_22_65
*587 FILLER_0_22_77
*588 FILLER_0_22_83
*589 FILLER_0_22_85
*590 FILLER_0_22_97
*591 FILLER_0_23_105
*592 FILLER_0_23_111
*593 FILLER_0_23_113
*594 FILLER_0_23_125
*595 FILLER_0_23_137
*596 FILLER_0_23_149
*597 FILLER_0_23_15
*598 FILLER_0_23_161
*599 FILLER_0_23_167
*600 FILLER_0_23_169
*601 FILLER_0_23_181
*602 FILLER_0_23_193
*603 FILLER_0_23_205
*604 FILLER_0_23_217
*605 FILLER_0_23_223
*606 FILLER_0_23_225
*607 FILLER_0_23_237
*608 FILLER_0_23_249
*609 FILLER_0_23_261
*610 FILLER_0_23_27
*611 FILLER_0_23_273
*612 FILLER_0_23_279
*613 FILLER_0_23_281
*614 FILLER_0_23_293
*615 FILLER_0_23_3
*616 FILLER_0_23_305
*617 FILLER_0_23_317
*618 FILLER_0_23_329
*619 FILLER_0_23_39
*620 FILLER_0_23_51
*621 FILLER_0_23_55
*622 FILLER_0_23_57
*623 FILLER_0_23_69
*624 FILLER_0_23_81
*625 FILLER_0_23_93
*626 FILLER_0_24_109
*627 FILLER_0_24_121
*628 FILLER_0_24_133
*629 FILLER_0_24_139
*630 FILLER_0_24_141
*631 FILLER_0_24_15
*632 FILLER_0_24_153
*633 FILLER_0_24_165
*634 FILLER_0_24_177
*635 FILLER_0_24_189
*636 FILLER_0_24_195
*637 FILLER_0_24_197
*638 FILLER_0_24_209
*639 FILLER_0_24_221
*640 FILLER_0_24_233
*641 FILLER_0_24_245
*642 FILLER_0_24_251
*643 FILLER_0_24_253
*644 FILLER_0_24_265
*645 FILLER_0_24_27
*646 FILLER_0_24_277
*647 FILLER_0_24_289
*648 FILLER_0_24_29
*649 FILLER_0_24_3
*650 FILLER_0_24_301
*651 FILLER_0_24_307
*652 FILLER_0_24_309
*653 FILLER_0_24_321
*654 FILLER_0_24_333
*655 FILLER_0_24_41
*656 FILLER_0_24_53
*657 FILLER_0_24_65
*658 FILLER_0_24_77
*659 FILLER_0_24_83
*660 FILLER_0_24_85
*661 FILLER_0_24_97
*662 FILLER_0_25_105
*663 FILLER_0_25_111
*664 FILLER_0_25_113
*665 FILLER_0_25_125
*666 FILLER_0_25_137
*667 FILLER_0_25_149
*668 FILLER_0_25_15
*669 FILLER_0_25_161
*670 FILLER_0_25_167
*671 FILLER_0_25_169
*672 FILLER_0_25_181
*673 FILLER_0_25_193
*674 FILLER_0_25_205
*675 FILLER_0_25_217
*676 FILLER_0_25_223
*677 FILLER_0_25_225
*678 FILLER_0_25_237
*679 FILLER_0_25_249
*680 FILLER_0_25_261
*681 FILLER_0_25_27
*682 FILLER_0_25_273
*683 FILLER_0_25_279
*684 FILLER_0_25_281
*685 FILLER_0_25_293
*686 FILLER_0_25_3
*687 FILLER_0_25_305
*688 FILLER_0_25_317
*689 FILLER_0_25_329
*690 FILLER_0_25_39
*691 FILLER_0_25_51
*692 FILLER_0_25_55
*693 FILLER_0_25_57
*694 FILLER_0_25_69
*695 FILLER_0_25_81
*696 FILLER_0_25_93
*697 FILLER_0_26_109
*698 FILLER_0_26_121
*699 FILLER_0_26_133
*700 FILLER_0_26_139
*701 FILLER_0_26_141
*702 FILLER_0_26_15
*703 FILLER_0_26_153
*704 FILLER_0_26_165
*705 FILLER_0_26_177
*706 FILLER_0_26_189
*707 FILLER_0_26_195
*708 FILLER_0_26_197
*709 FILLER_0_26_209
*710 FILLER_0_26_221
*711 FILLER_0_26_233
*712 FILLER_0_26_245
*713 FILLER_0_26_251
*714 FILLER_0_26_253
*715 FILLER_0_26_265
*716 FILLER_0_26_27
*717 FILLER_0_26_277
*718 FILLER_0_26_289
*719 FILLER_0_26_29
*720 FILLER_0_26_3
*721 FILLER_0_26_301
*722 FILLER_0_26_307
*723 FILLER_0_26_309
*724 FILLER_0_26_321
*725 FILLER_0_26_333
*726 FILLER_0_26_41
*727 FILLER_0_26_53
*728 FILLER_0_26_65
*729 FILLER_0_26_77
*730 FILLER_0_26_83
*731 FILLER_0_26_85
*732 FILLER_0_26_97
*733 FILLER_0_27_105
*734 FILLER_0_27_111
*735 FILLER_0_27_113
*736 FILLER_0_27_125
*737 FILLER_0_27_137
*738 FILLER_0_27_149
*739 FILLER_0_27_15
*740 FILLER_0_27_161
*741 FILLER_0_27_167
*742 FILLER_0_27_169
*743 FILLER_0_27_181
*744 FILLER_0_27_193
*745 FILLER_0_27_205
*746 FILLER_0_27_217
*747 FILLER_0_27_223
*748 FILLER_0_27_225
*749 FILLER_0_27_237
*750 FILLER_0_27_249
*751 FILLER_0_27_261
*752 FILLER_0_27_27
*753 FILLER_0_27_273
*754 FILLER_0_27_279
*755 FILLER_0_27_281
*756 FILLER_0_27_293
*757 FILLER_0_27_3
*758 FILLER_0_27_305
*759 FILLER_0_27_317
*760 FILLER_0_27_329
*761 FILLER_0_27_39
*762 FILLER_0_27_51
*763 FILLER_0_27_55
*764 FILLER_0_27_57
*765 FILLER_0_27_69
*766 FILLER_0_27_81
*767 FILLER_0_27_93
*768 FILLER_0_28_109
*769 FILLER_0_28_121
*770 FILLER_0_28_133
*771 FILLER_0_28_139
*772 FILLER_0_28_141
*773 FILLER_0_28_15
*774 FILLER_0_28_153
*775 FILLER_0_28_165
*776 FILLER_0_28_177
*777 FILLER_0_28_189
*778 FILLER_0_28_195
*779 FILLER_0_28_197
*780 FILLER_0_28_209
*781 FILLER_0_28_221
*782 FILLER_0_28_233
*783 FILLER_0_28_245
*784 FILLER_0_28_251
*785 FILLER_0_28_253
*786 FILLER_0_28_265
*787 FILLER_0_28_27
*788 FILLER_0_28_277
*789 FILLER_0_28_289
*790 FILLER_0_28_29
*791 FILLER_0_28_3
*792 FILLER_0_28_301
*793 FILLER_0_28_307
*794 FILLER_0_28_309
*795 FILLER_0_28_321
*796 FILLER_0_28_333
*797 FILLER_0_28_41
*798 FILLER_0_28_53
*799 FILLER_0_28_65
*800 FILLER_0_28_77
*801 FILLER_0_28_83
*802 FILLER_0_28_85
*803 FILLER_0_28_97
*804 FILLER_0_29_105
*805 FILLER_0_29_111
*806 FILLER_0_29_113
*807 FILLER_0_29_125
*808 FILLER_0_29_137
*809 FILLER_0_29_149
*810 FILLER_0_29_15
*811 FILLER_0_29_161
*812 FILLER_0_29_167
*813 FILLER_0_29_169
*814 FILLER_0_29_181
*815 FILLER_0_29_193
*816 FILLER_0_29_205
*817 FILLER_0_29_217
*818 FILLER_0_29_223
*819 FILLER_0_29_225
*820 FILLER_0_29_237
*821 FILLER_0_29_249
*822 FILLER_0_29_261
*823 FILLER_0_29_27
*824 FILLER_0_29_273
*825 FILLER_0_29_279
*826 FILLER_0_29_281
*827 FILLER_0_29_293
*828 FILLER_0_29_3
*829 FILLER_0_29_305
*830 FILLER_0_29_317
*831 FILLER_0_29_329
*832 FILLER_0_29_39
*833 FILLER_0_29_51
*834 FILLER_0_29_55
*835 FILLER_0_29_57
*836 FILLER_0_29_69
*837 FILLER_0_29_81
*838 FILLER_0_29_93
*839 FILLER_0_2_109
*840 FILLER_0_2_121
*841 FILLER_0_2_133
*842 FILLER_0_2_139
*843 FILLER_0_2_141
*844 FILLER_0_2_15
*845 FILLER_0_2_153
*846 FILLER_0_2_165
*847 FILLER_0_2_177
*848 FILLER_0_2_189
*849 FILLER_0_2_195
*850 FILLER_0_2_197
*851 FILLER_0_2_209
*852 FILLER_0_2_221
*853 FILLER_0_2_233
*854 FILLER_0_2_245
*855 FILLER_0_2_251
*856 FILLER_0_2_253
*857 FILLER_0_2_265
*858 FILLER_0_2_27
*859 FILLER_0_2_277
*860 FILLER_0_2_289
*861 FILLER_0_2_29
*862 FILLER_0_2_3
*863 FILLER_0_2_301
*864 FILLER_0_2_307
*865 FILLER_0_2_309
*866 FILLER_0_2_321
*867 FILLER_0_2_333
*868 FILLER_0_2_41
*869 FILLER_0_2_53
*870 FILLER_0_2_65
*871 FILLER_0_2_77
*872 FILLER_0_2_83
*873 FILLER_0_2_85
*874 FILLER_0_2_97
*875 FILLER_0_30_109
*876 FILLER_0_30_121
*877 FILLER_0_30_133
*878 FILLER_0_30_139
*879 FILLER_0_30_141
*880 FILLER_0_30_15
*881 FILLER_0_30_153
*882 FILLER_0_30_165
*883 FILLER_0_30_177
*884 FILLER_0_30_189
*885 FILLER_0_30_195
*886 FILLER_0_30_197
*887 FILLER_0_30_209
*888 FILLER_0_30_221
*889 FILLER_0_30_233
*890 FILLER_0_30_245
*891 FILLER_0_30_251
*892 FILLER_0_30_253
*893 FILLER_0_30_265
*894 FILLER_0_30_27
*895 FILLER_0_30_277
*896 FILLER_0_30_289
*897 FILLER_0_30_29
*898 FILLER_0_30_3
*899 FILLER_0_30_301
*900 FILLER_0_30_307
*901 FILLER_0_30_309
*902 FILLER_0_30_321
*903 FILLER_0_30_333
*904 FILLER_0_30_41
*905 FILLER_0_30_53
*906 FILLER_0_30_65
*907 FILLER_0_30_77
*908 FILLER_0_30_83
*909 FILLER_0_30_85
*910 FILLER_0_30_97
*911 FILLER_0_31_105
*912 FILLER_0_31_111
*913 FILLER_0_31_113
*914 FILLER_0_31_125
*915 FILLER_0_31_137
*916 FILLER_0_31_149
*917 FILLER_0_31_15
*918 FILLER_0_31_161
*919 FILLER_0_31_167
*920 FILLER_0_31_169
*921 FILLER_0_31_181
*922 FILLER_0_31_193
*923 FILLER_0_31_205
*924 FILLER_0_31_217
*925 FILLER_0_31_223
*926 FILLER_0_31_225
*927 FILLER_0_31_237
*928 FILLER_0_31_249
*929 FILLER_0_31_261
*930 FILLER_0_31_27
*931 FILLER_0_31_273
*932 FILLER_0_31_279
*933 FILLER_0_31_281
*934 FILLER_0_31_293
*935 FILLER_0_31_3
*936 FILLER_0_31_305
*937 FILLER_0_31_317
*938 FILLER_0_31_329
*939 FILLER_0_31_39
*940 FILLER_0_31_51
*941 FILLER_0_31_55
*942 FILLER_0_31_57
*943 FILLER_0_31_69
*944 FILLER_0_31_81
*945 FILLER_0_31_93
*946 FILLER_0_32_109
*947 FILLER_0_32_121
*948 FILLER_0_32_133
*949 FILLER_0_32_139
*950 FILLER_0_32_141
*951 FILLER_0_32_15
*952 FILLER_0_32_153
*953 FILLER_0_32_165
*954 FILLER_0_32_177
*955 FILLER_0_32_189
*956 FILLER_0_32_195
*957 FILLER_0_32_197
*958 FILLER_0_32_209
*959 FILLER_0_32_221
*960 FILLER_0_32_233
*961 FILLER_0_32_245
*962 FILLER_0_32_251
*963 FILLER_0_32_253
*964 FILLER_0_32_265
*965 FILLER_0_32_27
*966 FILLER_0_32_277
*967 FILLER_0_32_289
*968 FILLER_0_32_29
*969 FILLER_0_32_3
*970 FILLER_0_32_301
*971 FILLER_0_32_307
*972 FILLER_0_32_309
*973 FILLER_0_32_321
*974 FILLER_0_32_333
*975 FILLER_0_32_41
*976 FILLER_0_32_53
*977 FILLER_0_32_65
*978 FILLER_0_32_77
*979 FILLER_0_32_83
*980 FILLER_0_32_85
*981 FILLER_0_32_97
*982 FILLER_0_33_105
*983 FILLER_0_33_111
*984 FILLER_0_33_113
*985 FILLER_0_33_125
*986 FILLER_0_33_137
*987 FILLER_0_33_149
*988 FILLER_0_33_15
*989 FILLER_0_33_161
*990 FILLER_0_33_167
*991 FILLER_0_33_169
*992 FILLER_0_33_181
*993 FILLER_0_33_193
*994 FILLER_0_33_205
*995 FILLER_0_33_217
*996 FILLER_0_33_223
*997 FILLER_0_33_225
*998 FILLER_0_33_237
*999 FILLER_0_33_249
*1000 FILLER_0_33_261
*1001 FILLER_0_33_27
*1002 FILLER_0_33_273
*1003 FILLER_0_33_279
*1004 FILLER_0_33_281
*1005 FILLER_0_33_293
*1006 FILLER_0_33_3
*1007 FILLER_0_33_305
*1008 FILLER_0_33_317
*1009 FILLER_0_33_329
*1010 FILLER_0_33_39
*1011 FILLER_0_33_51
*1012 FILLER_0_33_55
*1013 FILLER_0_33_57
*1014 FILLER_0_33_69
*1015 FILLER_0_33_81
*1016 FILLER_0_33_93
*1017 FILLER_0_34_109
*1018 FILLER_0_34_121
*1019 FILLER_0_34_133
*1020 FILLER_0_34_139
*1021 FILLER_0_34_141
*1022 FILLER_0_34_15
*1023 FILLER_0_34_153
*1024 FILLER_0_34_165
*1025 FILLER_0_34_177
*1026 FILLER_0_34_189
*1027 FILLER_0_34_195
*1028 FILLER_0_34_197
*1029 FILLER_0_34_209
*1030 FILLER_0_34_221
*1031 FILLER_0_34_233
*1032 FILLER_0_34_245
*1033 FILLER_0_34_251
*1034 FILLER_0_34_253
*1035 FILLER_0_34_265
*1036 FILLER_0_34_27
*1037 FILLER_0_34_277
*1038 FILLER_0_34_289
*1039 FILLER_0_34_29
*1040 FILLER_0_34_3
*1041 FILLER_0_34_301
*1042 FILLER_0_34_307
*1043 FILLER_0_34_309
*1044 FILLER_0_34_321
*1045 FILLER_0_34_333
*1046 FILLER_0_34_41
*1047 FILLER_0_34_53
*1048 FILLER_0_34_65
*1049 FILLER_0_34_77
*1050 FILLER_0_34_83
*1051 FILLER_0_34_85
*1052 FILLER_0_34_97
*1053 FILLER_0_35_105
*1054 FILLER_0_35_111
*1055 FILLER_0_35_113
*1056 FILLER_0_35_125
*1057 FILLER_0_35_137
*1058 FILLER_0_35_149
*1059 FILLER_0_35_15
*1060 FILLER_0_35_161
*1061 FILLER_0_35_167
*1062 FILLER_0_35_169
*1063 FILLER_0_35_181
*1064 FILLER_0_35_193
*1065 FILLER_0_35_205
*1066 FILLER_0_35_217
*1067 FILLER_0_35_223
*1068 FILLER_0_35_225
*1069 FILLER_0_35_237
*1070 FILLER_0_35_249
*1071 FILLER_0_35_261
*1072 FILLER_0_35_27
*1073 FILLER_0_35_273
*1074 FILLER_0_35_279
*1075 FILLER_0_35_281
*1076 FILLER_0_35_293
*1077 FILLER_0_35_3
*1078 FILLER_0_35_305
*1079 FILLER_0_35_317
*1080 FILLER_0_35_329
*1081 FILLER_0_35_39
*1082 FILLER_0_35_51
*1083 FILLER_0_35_55
*1084 FILLER_0_35_57
*1085 FILLER_0_35_69
*1086 FILLER_0_35_81
*1087 FILLER_0_35_93
*1088 FILLER_0_36_109
*1089 FILLER_0_36_121
*1090 FILLER_0_36_133
*1091 FILLER_0_36_139
*1092 FILLER_0_36_141
*1093 FILLER_0_36_15
*1094 FILLER_0_36_153
*1095 FILLER_0_36_165
*1096 FILLER_0_36_177
*1097 FILLER_0_36_189
*1098 FILLER_0_36_195
*1099 FILLER_0_36_197
*1100 FILLER_0_36_209
*1101 FILLER_0_36_221
*1102 FILLER_0_36_233
*1103 FILLER_0_36_245
*1104 FILLER_0_36_251
*1105 FILLER_0_36_253
*1106 FILLER_0_36_265
*1107 FILLER_0_36_27
*1108 FILLER_0_36_277
*1109 FILLER_0_36_289
*1110 FILLER_0_36_29
*1111 FILLER_0_36_3
*1112 FILLER_0_36_301
*1113 FILLER_0_36_307
*1114 FILLER_0_36_309
*1115 FILLER_0_36_321
*1116 FILLER_0_36_333
*1117 FILLER_0_36_41
*1118 FILLER_0_36_53
*1119 FILLER_0_36_65
*1120 FILLER_0_36_77
*1121 FILLER_0_36_83
*1122 FILLER_0_36_85
*1123 FILLER_0_36_97
*1124 FILLER_0_37_105
*1125 FILLER_0_37_111
*1126 FILLER_0_37_113
*1127 FILLER_0_37_125
*1128 FILLER_0_37_137
*1129 FILLER_0_37_149
*1130 FILLER_0_37_15
*1131 FILLER_0_37_161
*1132 FILLER_0_37_167
*1133 FILLER_0_37_181
*1134 FILLER_0_37_193
*1135 FILLER_0_37_205
*1136 FILLER_0_37_217
*1137 FILLER_0_37_223
*1138 FILLER_0_37_225
*1139 FILLER_0_37_237
*1140 FILLER_0_37_249
*1141 FILLER_0_37_261
*1142 FILLER_0_37_27
*1143 FILLER_0_37_273
*1144 FILLER_0_37_279
*1145 FILLER_0_37_281
*1146 FILLER_0_37_293
*1147 FILLER_0_37_3
*1148 FILLER_0_37_305
*1149 FILLER_0_37_317
*1150 FILLER_0_37_329
*1151 FILLER_0_37_39
*1152 FILLER_0_37_51
*1153 FILLER_0_37_55
*1154 FILLER_0_37_57
*1155 FILLER_0_37_69
*1156 FILLER_0_37_81
*1157 FILLER_0_37_93
*1158 FILLER_0_38_10
*1159 FILLER_0_38_102
*1160 FILLER_0_38_106
*1161 FILLER_0_38_110
*1162 FILLER_0_38_113
*1163 FILLER_0_38_118
*1164 FILLER_0_38_122
*1165 FILLER_0_38_126
*1166 FILLER_0_38_138
*1167 FILLER_0_38_14
*1168 FILLER_0_38_141
*1169 FILLER_0_38_153
*1170 FILLER_0_38_157
*1171 FILLER_0_38_18
*1172 FILLER_0_38_194
*1173 FILLER_0_38_206
*1174 FILLER_0_38_218
*1175 FILLER_0_38_22
*1176 FILLER_0_38_225
*1177 FILLER_0_38_237
*1178 FILLER_0_38_249
*1179 FILLER_0_38_253
*1180 FILLER_0_38_262
*1181 FILLER_0_38_266
*1182 FILLER_0_38_270
*1183 FILLER_0_38_274
*1184 FILLER_0_38_278
*1185 FILLER_0_38_281
*1186 FILLER_0_38_286
*1187 FILLER_0_38_290
*1188 FILLER_0_38_294
*1189 FILLER_0_38_298
*1190 FILLER_0_38_302
*1191 FILLER_0_38_312
*1192 FILLER_0_38_318
*1193 FILLER_0_38_32
*1194 FILLER_0_38_330
*1195 FILLER_0_38_334
*1196 FILLER_0_38_38
*1197 FILLER_0_38_42
*1198 FILLER_0_38_46
*1199 FILLER_0_38_50
*1200 FILLER_0_38_54
*1201 FILLER_0_38_57
*1202 FILLER_0_38_6
*1203 FILLER_0_38_62
*1204 FILLER_0_38_66
*1205 FILLER_0_38_70
*1206 FILLER_0_38_74
*1207 FILLER_0_38_78
*1208 FILLER_0_38_88
*1209 FILLER_0_38_94
*1210 FILLER_0_38_98
*1211 FILLER_0_3_105
*1212 FILLER_0_3_111
*1213 FILLER_0_3_113
*1214 FILLER_0_3_125
*1215 FILLER_0_3_137
*1216 FILLER_0_3_149
*1217 FILLER_0_3_15
*1218 FILLER_0_3_161
*1219 FILLER_0_3_167
*1220 FILLER_0_3_169
*1221 FILLER_0_3_181
*1222 FILLER_0_3_193
*1223 FILLER_0_3_205
*1224 FILLER_0_3_217
*1225 FILLER_0_3_223
*1226 FILLER_0_3_225
*1227 FILLER_0_3_237
*1228 FILLER_0_3_249
*1229 FILLER_0_3_261
*1230 FILLER_0_3_27
*1231 FILLER_0_3_273
*1232 FILLER_0_3_279
*1233 FILLER_0_3_281
*1234 FILLER_0_3_293
*1235 FILLER_0_3_3
*1236 FILLER_0_3_305
*1237 FILLER_0_3_317
*1238 FILLER_0_3_329
*1239 FILLER_0_3_39
*1240 FILLER_0_3_51
*1241 FILLER_0_3_55
*1242 FILLER_0_3_57
*1243 FILLER_0_3_69
*1244 FILLER_0_3_81
*1245 FILLER_0_3_93
*1246 FILLER_0_4_109
*1247 FILLER_0_4_121
*1248 FILLER_0_4_133
*1249 FILLER_0_4_139
*1250 FILLER_0_4_141
*1251 FILLER_0_4_15
*1252 FILLER_0_4_153
*1253 FILLER_0_4_165
*1254 FILLER_0_4_177
*1255 FILLER_0_4_189
*1256 FILLER_0_4_195
*1257 FILLER_0_4_197
*1258 FILLER_0_4_209
*1259 FILLER_0_4_221
*1260 FILLER_0_4_233
*1261 FILLER_0_4_245
*1262 FILLER_0_4_251
*1263 FILLER_0_4_253
*1264 FILLER_0_4_265
*1265 FILLER_0_4_27
*1266 FILLER_0_4_277
*1267 FILLER_0_4_289
*1268 FILLER_0_4_29
*1269 FILLER_0_4_3
*1270 FILLER_0_4_301
*1271 FILLER_0_4_307
*1272 FILLER_0_4_309
*1273 FILLER_0_4_321
*1274 FILLER_0_4_333
*1275 FILLER_0_4_41
*1276 FILLER_0_4_53
*1277 FILLER_0_4_65
*1278 FILLER_0_4_77
*1279 FILLER_0_4_83
*1280 FILLER_0_4_85
*1281 FILLER_0_4_97
*1282 FILLER_0_5_105
*1283 FILLER_0_5_111
*1284 FILLER_0_5_113
*1285 FILLER_0_5_125
*1286 FILLER_0_5_137
*1287 FILLER_0_5_149
*1288 FILLER_0_5_15
*1289 FILLER_0_5_161
*1290 FILLER_0_5_167
*1291 FILLER_0_5_169
*1292 FILLER_0_5_181
*1293 FILLER_0_5_193
*1294 FILLER_0_5_205
*1295 FILLER_0_5_217
*1296 FILLER_0_5_223
*1297 FILLER_0_5_225
*1298 FILLER_0_5_237
*1299 FILLER_0_5_249
*1300 FILLER_0_5_261
*1301 FILLER_0_5_27
*1302 FILLER_0_5_273
*1303 FILLER_0_5_279
*1304 FILLER_0_5_281
*1305 FILLER_0_5_293
*1306 FILLER_0_5_3
*1307 FILLER_0_5_305
*1308 FILLER_0_5_317
*1309 FILLER_0_5_329
*1310 FILLER_0_5_39
*1311 FILLER_0_5_51
*1312 FILLER_0_5_55
*1313 FILLER_0_5_57
*1314 FILLER_0_5_69
*1315 FILLER_0_5_81
*1316 FILLER_0_5_93
*1317 FILLER_0_6_109
*1318 FILLER_0_6_121
*1319 FILLER_0_6_133
*1320 FILLER_0_6_139
*1321 FILLER_0_6_141
*1322 FILLER_0_6_15
*1323 FILLER_0_6_153
*1324 FILLER_0_6_165
*1325 FILLER_0_6_177
*1326 FILLER_0_6_189
*1327 FILLER_0_6_195
*1328 FILLER_0_6_197
*1329 FILLER_0_6_209
*1330 FILLER_0_6_221
*1331 FILLER_0_6_233
*1332 FILLER_0_6_245
*1333 FILLER_0_6_251
*1334 FILLER_0_6_253
*1335 FILLER_0_6_265
*1336 FILLER_0_6_27
*1337 FILLER_0_6_277
*1338 FILLER_0_6_289
*1339 FILLER_0_6_29
*1340 FILLER_0_6_3
*1341 FILLER_0_6_301
*1342 FILLER_0_6_307
*1343 FILLER_0_6_309
*1344 FILLER_0_6_321
*1345 FILLER_0_6_333
*1346 FILLER_0_6_41
*1347 FILLER_0_6_53
*1348 FILLER_0_6_65
*1349 FILLER_0_6_77
*1350 FILLER_0_6_83
*1351 FILLER_0_6_85
*1352 FILLER_0_6_97
*1353 FILLER_0_7_105
*1354 FILLER_0_7_111
*1355 FILLER_0_7_113
*1356 FILLER_0_7_125
*1357 FILLER_0_7_137
*1358 FILLER_0_7_149
*1359 FILLER_0_7_15
*1360 FILLER_0_7_161
*1361 FILLER_0_7_167
*1362 FILLER_0_7_169
*1363 FILLER_0_7_181
*1364 FILLER_0_7_193
*1365 FILLER_0_7_205
*1366 FILLER_0_7_217
*1367 FILLER_0_7_223
*1368 FILLER_0_7_225
*1369 FILLER_0_7_237
*1370 FILLER_0_7_249
*1371 FILLER_0_7_261
*1372 FILLER_0_7_27
*1373 FILLER_0_7_273
*1374 FILLER_0_7_279
*1375 FILLER_0_7_281
*1376 FILLER_0_7_293
*1377 FILLER_0_7_3
*1378 FILLER_0_7_305
*1379 FILLER_0_7_317
*1380 FILLER_0_7_329
*1381 FILLER_0_7_39
*1382 FILLER_0_7_51
*1383 FILLER_0_7_55
*1384 FILLER_0_7_57
*1385 FILLER_0_7_69
*1386 FILLER_0_7_81
*1387 FILLER_0_7_93
*1388 FILLER_0_8_109
*1389 FILLER_0_8_121
*1390 FILLER_0_8_133
*1391 FILLER_0_8_139
*1392 FILLER_0_8_141
*1393 FILLER_0_8_15
*1394 FILLER_0_8_153
*1395 FILLER_0_8_165
*1396 FILLER_0_8_177
*1397 FILLER_0_8_189
*1398 FILLER_0_8_195
*1399 FILLER_0_8_197
*1400 FILLER_0_8_209
*1401 FILLER_0_8_221
*1402 FILLER_0_8_233
*1403 FILLER_0_8_245
*1404 FILLER_0_8_251
*1405 FILLER_0_8_253
*1406 FILLER_0_8_265
*1407 FILLER_0_8_27
*1408 FILLER_0_8_277
*1409 FILLER_0_8_289
*1410 FILLER_0_8_29
*1411 FILLER_0_8_3
*1412 FILLER_0_8_301
*1413 FILLER_0_8_307
*1414 FILLER_0_8_309
*1415 FILLER_0_8_321
*1416 FILLER_0_8_333
*1417 FILLER_0_8_41
*1418 FILLER_0_8_53
*1419 FILLER_0_8_65
*1420 FILLER_0_8_77
*1421 FILLER_0_8_83
*1422 FILLER_0_8_85
*1423 FILLER_0_8_97
*1424 FILLER_0_9_105
*1425 FILLER_0_9_111
*1426 FILLER_0_9_113
*1427 FILLER_0_9_125
*1428 FILLER_0_9_137
*1429 FILLER_0_9_149
*1430 FILLER_0_9_15
*1431 FILLER_0_9_161
*1432 FILLER_0_9_167
*1433 FILLER_0_9_169
*1434 FILLER_0_9_181
*1435 FILLER_0_9_193
*1436 FILLER_0_9_205
*1437 FILLER_0_9_217
*1438 FILLER_0_9_223
*1439 FILLER_0_9_225
*1440 FILLER_0_9_237
*1441 FILLER_0_9_249
*1442 FILLER_0_9_261
*1443 FILLER_0_9_27
*1444 FILLER_0_9_273
*1445 FILLER_0_9_279
*1446 FILLER_0_9_281
*1447 FILLER_0_9_293
*1448 FILLER_0_9_3
*1449 FILLER_0_9_305
*1450 FILLER_0_9_317
*1451 FILLER_0_9_329
*1452 FILLER_0_9_39
*1453 FILLER_0_9_51
*1454 FILLER_0_9_55
*1455 FILLER_0_9_57
*1456 FILLER_0_9_69
*1457 FILLER_0_9_81
*1458 FILLER_0_9_93