*SPEF "ieee 1481-1999"
*DESIGN "tt_um_wokwi_346662028519146068"
*DATE "11:11:11 Fri 11 11, 1111"
*VENDOR "OpenRCX"
*PROGRAM "Parallel Extraction"
*VERSION "1.0"
*DESIGN_FLOW "NAME_SCOPE LOCAL" "PIN_CAP NONE"
*DIVIDER /
*DELIMITER :
*BUS_DELIMITER []
*T_UNIT 1 NS
*C_UNIT 1 PF
*R_UNIT 1 OHM
*L_UNIT 1 HENRY

*NAME_MAP
*3 clk
*4 ena
*5 rst_n
*6 ui_in[0]
*7 ui_in[1]
*8 ui_in[2]
*9 ui_in[3]
*10 ui_in[4]
*11 ui_in[5]
*12 ui_in[6]
*13 ui_in[7]
*14 uio_in[0]
*15 uio_in[1]
*16 uio_in[2]
*17 uio_in[3]
*18 uio_in[4]
*19 uio_in[5]
*20 uio_in[6]
*21 uio_in[7]
*22 net4
*23 net5
*24 net6
*25 net7
*26 net8
*27 net9
*28 net10
*29 net11
*30 net12
*31 net13
*32 net14
*33 net15
*34 net16
*35 net17
*36 net18
*37 net19
*38 uo_out[0]
*39 net20
*40 net21
*41 net22
*42 net23
*43 uo_out[5]
*44 net24
*45 net25
*46 _00_
*47 _01_
*48 _02_
*49 gate10\.out
*50 gate7\.out
*51 net1
*52 net2
*53 net3
*54 FILLER_0_0_109
*55 FILLER_0_0_113
*56 FILLER_0_0_125
*57 FILLER_0_0_137
*58 FILLER_0_0_141
*59 FILLER_0_0_15
*60 FILLER_0_0_153
*61 FILLER_0_0_165
*62 FILLER_0_0_169
*63 FILLER_0_0_181
*64 FILLER_0_0_193
*65 FILLER_0_0_197
*66 FILLER_0_0_209
*67 FILLER_0_0_221
*68 FILLER_0_0_225
*69 FILLER_0_0_237
*70 FILLER_0_0_249
*71 FILLER_0_0_253
*72 FILLER_0_0_265
*73 FILLER_0_0_27
*74 FILLER_0_0_277
*75 FILLER_0_0_281
*76 FILLER_0_0_29
*77 FILLER_0_0_293
*78 FILLER_0_0_3
*79 FILLER_0_0_305
*80 FILLER_0_0_309
*81 FILLER_0_0_321
*82 FILLER_0_0_333
*83 FILLER_0_0_41
*84 FILLER_0_0_53
*85 FILLER_0_0_57
*86 FILLER_0_0_69
*87 FILLER_0_0_81
*88 FILLER_0_0_85
*89 FILLER_0_0_97
*90 FILLER_0_10_109
*91 FILLER_0_10_121
*92 FILLER_0_10_133
*93 FILLER_0_10_139
*94 FILLER_0_10_141
*95 FILLER_0_10_15
*96 FILLER_0_10_153
*97 FILLER_0_10_165
*98 FILLER_0_10_177
*99 FILLER_0_10_189
*100 FILLER_0_10_195
*101 FILLER_0_10_197
*102 FILLER_0_10_209
*103 FILLER_0_10_221
*104 FILLER_0_10_233
*105 FILLER_0_10_245
*106 FILLER_0_10_251
*107 FILLER_0_10_253
*108 FILLER_0_10_265
*109 FILLER_0_10_27
*110 FILLER_0_10_277
*111 FILLER_0_10_289
*112 FILLER_0_10_29
*113 FILLER_0_10_3
*114 FILLER_0_10_301
*115 FILLER_0_10_307
*116 FILLER_0_10_309
*117 FILLER_0_10_321
*118 FILLER_0_10_333
*119 FILLER_0_10_41
*120 FILLER_0_10_53
*121 FILLER_0_10_65
*122 FILLER_0_10_77
*123 FILLER_0_10_83
*124 FILLER_0_10_85
*125 FILLER_0_10_97
*126 FILLER_0_11_105
*127 FILLER_0_11_111
*128 FILLER_0_11_113
*129 FILLER_0_11_125
*130 FILLER_0_11_137
*131 FILLER_0_11_149
*132 FILLER_0_11_15
*133 FILLER_0_11_161
*134 FILLER_0_11_167
*135 FILLER_0_11_169
*136 FILLER_0_11_181
*137 FILLER_0_11_193
*138 FILLER_0_11_205
*139 FILLER_0_11_217
*140 FILLER_0_11_223
*141 FILLER_0_11_225
*142 FILLER_0_11_237
*143 FILLER_0_11_249
*144 FILLER_0_11_261
*145 FILLER_0_11_27
*146 FILLER_0_11_273
*147 FILLER_0_11_279
*148 FILLER_0_11_281
*149 FILLER_0_11_293
*150 FILLER_0_11_3
*151 FILLER_0_11_305
*152 FILLER_0_11_317
*153 FILLER_0_11_329
*154 FILLER_0_11_39
*155 FILLER_0_11_51
*156 FILLER_0_11_55
*157 FILLER_0_11_57
*158 FILLER_0_11_69
*159 FILLER_0_11_81
*160 FILLER_0_11_93
*161 FILLER_0_12_109
*162 FILLER_0_12_121
*163 FILLER_0_12_133
*164 FILLER_0_12_139
*165 FILLER_0_12_141
*166 FILLER_0_12_15
*167 FILLER_0_12_153
*168 FILLER_0_12_165
*169 FILLER_0_12_177
*170 FILLER_0_12_189
*171 FILLER_0_12_195
*172 FILLER_0_12_197
*173 FILLER_0_12_209
*174 FILLER_0_12_221
*175 FILLER_0_12_233
*176 FILLER_0_12_245
*177 FILLER_0_12_251
*178 FILLER_0_12_253
*179 FILLER_0_12_265
*180 FILLER_0_12_27
*181 FILLER_0_12_277
*182 FILLER_0_12_289
*183 FILLER_0_12_29
*184 FILLER_0_12_3
*185 FILLER_0_12_301
*186 FILLER_0_12_307
*187 FILLER_0_12_309
*188 FILLER_0_12_321
*189 FILLER_0_12_333
*190 FILLER_0_12_41
*191 FILLER_0_12_53
*192 FILLER_0_12_65
*193 FILLER_0_12_77
*194 FILLER_0_12_83
*195 FILLER_0_12_85
*196 FILLER_0_12_97
*197 FILLER_0_13_105
*198 FILLER_0_13_111
*199 FILLER_0_13_113
*200 FILLER_0_13_125
*201 FILLER_0_13_137
*202 FILLER_0_13_149
*203 FILLER_0_13_15
*204 FILLER_0_13_161
*205 FILLER_0_13_167
*206 FILLER_0_13_169
*207 FILLER_0_13_181
*208 FILLER_0_13_193
*209 FILLER_0_13_205
*210 FILLER_0_13_217
*211 FILLER_0_13_223
*212 FILLER_0_13_225
*213 FILLER_0_13_237
*214 FILLER_0_13_249
*215 FILLER_0_13_261
*216 FILLER_0_13_27
*217 FILLER_0_13_273
*218 FILLER_0_13_279
*219 FILLER_0_13_281
*220 FILLER_0_13_293
*221 FILLER_0_13_3
*222 FILLER_0_13_305
*223 FILLER_0_13_317
*224 FILLER_0_13_329
*225 FILLER_0_13_39
*226 FILLER_0_13_51
*227 FILLER_0_13_55
*228 FILLER_0_13_57
*229 FILLER_0_13_69
*230 FILLER_0_13_81
*231 FILLER_0_13_93
*232 FILLER_0_14_109
*233 FILLER_0_14_121
*234 FILLER_0_14_133
*235 FILLER_0_14_139
*236 FILLER_0_14_141
*237 FILLER_0_14_15
*238 FILLER_0_14_153
*239 FILLER_0_14_165
*240 FILLER_0_14_177
*241 FILLER_0_14_189
*242 FILLER_0_14_195
*243 FILLER_0_14_197
*244 FILLER_0_14_209
*245 FILLER_0_14_221
*246 FILLER_0_14_233
*247 FILLER_0_14_245
*248 FILLER_0_14_251
*249 FILLER_0_14_253
*250 FILLER_0_14_265
*251 FILLER_0_14_27
*252 FILLER_0_14_277
*253 FILLER_0_14_289
*254 FILLER_0_14_29
*255 FILLER_0_14_3
*256 FILLER_0_14_301
*257 FILLER_0_14_307
*258 FILLER_0_14_309
*259 FILLER_0_14_321
*260 FILLER_0_14_333
*261 FILLER_0_14_41
*262 FILLER_0_14_53
*263 FILLER_0_14_65
*264 FILLER_0_14_77
*265 FILLER_0_14_83
*266 FILLER_0_14_85
*267 FILLER_0_14_97
*268 FILLER_0_15_105
*269 FILLER_0_15_111
*270 FILLER_0_15_113
*271 FILLER_0_15_125
*272 FILLER_0_15_137
*273 FILLER_0_15_149
*274 FILLER_0_15_15
*275 FILLER_0_15_161
*276 FILLER_0_15_167
*277 FILLER_0_15_169
*278 FILLER_0_15_181
*279 FILLER_0_15_193
*280 FILLER_0_15_205
*281 FILLER_0_15_217
*282 FILLER_0_15_223
*283 FILLER_0_15_225
*284 FILLER_0_15_237
*285 FILLER_0_15_249
*286 FILLER_0_15_261
*287 FILLER_0_15_27
*288 FILLER_0_15_273
*289 FILLER_0_15_279
*290 FILLER_0_15_281
*291 FILLER_0_15_293
*292 FILLER_0_15_3
*293 FILLER_0_15_305
*294 FILLER_0_15_317
*295 FILLER_0_15_329
*296 FILLER_0_15_39
*297 FILLER_0_15_51
*298 FILLER_0_15_55
*299 FILLER_0_15_57
*300 FILLER_0_15_69
*301 FILLER_0_15_81
*302 FILLER_0_15_93
*303 FILLER_0_16_109
*304 FILLER_0_16_121
*305 FILLER_0_16_133
*306 FILLER_0_16_139
*307 FILLER_0_16_141
*308 FILLER_0_16_15
*309 FILLER_0_16_153
*310 FILLER_0_16_165
*311 FILLER_0_16_177
*312 FILLER_0_16_189
*313 FILLER_0_16_195
*314 FILLER_0_16_197
*315 FILLER_0_16_209
*316 FILLER_0_16_221
*317 FILLER_0_16_233
*318 FILLER_0_16_245
*319 FILLER_0_16_251
*320 FILLER_0_16_253
*321 FILLER_0_16_265
*322 FILLER_0_16_27
*323 FILLER_0_16_277
*324 FILLER_0_16_289
*325 FILLER_0_16_29
*326 FILLER_0_16_3
*327 FILLER_0_16_301
*328 FILLER_0_16_307
*329 FILLER_0_16_309
*330 FILLER_0_16_321
*331 FILLER_0_16_333
*332 FILLER_0_16_41
*333 FILLER_0_16_53
*334 FILLER_0_16_65
*335 FILLER_0_16_77
*336 FILLER_0_16_83
*337 FILLER_0_16_85
*338 FILLER_0_16_97
*339 FILLER_0_17_105
*340 FILLER_0_17_111
*341 FILLER_0_17_113
*342 FILLER_0_17_125
*343 FILLER_0_17_137
*344 FILLER_0_17_149
*345 FILLER_0_17_15
*346 FILLER_0_17_161
*347 FILLER_0_17_167
*348 FILLER_0_17_169
*349 FILLER_0_17_181
*350 FILLER_0_17_193
*351 FILLER_0_17_205
*352 FILLER_0_17_217
*353 FILLER_0_17_223
*354 FILLER_0_17_225
*355 FILLER_0_17_237
*356 FILLER_0_17_249
*357 FILLER_0_17_261
*358 FILLER_0_17_27
*359 FILLER_0_17_273
*360 FILLER_0_17_279
*361 FILLER_0_17_281
*362 FILLER_0_17_293
*363 FILLER_0_17_3
*364 FILLER_0_17_305
*365 FILLER_0_17_317
*366 FILLER_0_17_329
*367 FILLER_0_17_39
*368 FILLER_0_17_51
*369 FILLER_0_17_55
*370 FILLER_0_17_57
*371 FILLER_0_17_69
*372 FILLER_0_17_81
*373 FILLER_0_17_93
*374 FILLER_0_18_109
*375 FILLER_0_18_121
*376 FILLER_0_18_133
*377 FILLER_0_18_139
*378 FILLER_0_18_141
*379 FILLER_0_18_15
*380 FILLER_0_18_153
*381 FILLER_0_18_165
*382 FILLER_0_18_177
*383 FILLER_0_18_189
*384 FILLER_0_18_195
*385 FILLER_0_18_197
*386 FILLER_0_18_209
*387 FILLER_0_18_221
*388 FILLER_0_18_233
*389 FILLER_0_18_245
*390 FILLER_0_18_251
*391 FILLER_0_18_253
*392 FILLER_0_18_265
*393 FILLER_0_18_27
*394 FILLER_0_18_277
*395 FILLER_0_18_289
*396 FILLER_0_18_29
*397 FILLER_0_18_3
*398 FILLER_0_18_301
*399 FILLER_0_18_307
*400 FILLER_0_18_309
*401 FILLER_0_18_321
*402 FILLER_0_18_333
*403 FILLER_0_18_41
*404 FILLER_0_18_53
*405 FILLER_0_18_65
*406 FILLER_0_18_77
*407 FILLER_0_18_83
*408 FILLER_0_18_85
*409 FILLER_0_18_97
*410 FILLER_0_19_105
*411 FILLER_0_19_111
*412 FILLER_0_19_113
*413 FILLER_0_19_125
*414 FILLER_0_19_137
*415 FILLER_0_19_149
*416 FILLER_0_19_15
*417 FILLER_0_19_161
*418 FILLER_0_19_167
*419 FILLER_0_19_169
*420 FILLER_0_19_181
*421 FILLER_0_19_193
*422 FILLER_0_19_205
*423 FILLER_0_19_217
*424 FILLER_0_19_223
*425 FILLER_0_19_225
*426 FILLER_0_19_237
*427 FILLER_0_19_249
*428 FILLER_0_19_261
*429 FILLER_0_19_27
*430 FILLER_0_19_273
*431 FILLER_0_19_279
*432 FILLER_0_19_281
*433 FILLER_0_19_293
*434 FILLER_0_19_3
*435 FILLER_0_19_305
*436 FILLER_0_19_317
*437 FILLER_0_19_329
*438 FILLER_0_19_39
*439 FILLER_0_19_51
*440 FILLER_0_19_55
*441 FILLER_0_19_57
*442 FILLER_0_19_69
*443 FILLER_0_19_81
*444 FILLER_0_19_93
*445 FILLER_0_1_105
*446 FILLER_0_1_111
*447 FILLER_0_1_113
*448 FILLER_0_1_125
*449 FILLER_0_1_137
*450 FILLER_0_1_149
*451 FILLER_0_1_15
*452 FILLER_0_1_161
*453 FILLER_0_1_167
*454 FILLER_0_1_169
*455 FILLER_0_1_181
*456 FILLER_0_1_193
*457 FILLER_0_1_205
*458 FILLER_0_1_217
*459 FILLER_0_1_223
*460 FILLER_0_1_225
*461 FILLER_0_1_237
*462 FILLER_0_1_249
*463 FILLER_0_1_261
*464 FILLER_0_1_27
*465 FILLER_0_1_273
*466 FILLER_0_1_279
*467 FILLER_0_1_281
*468 FILLER_0_1_293
*469 FILLER_0_1_3
*470 FILLER_0_1_305
*471 FILLER_0_1_317
*472 FILLER_0_1_329
*473 FILLER_0_1_39
*474 FILLER_0_1_51
*475 FILLER_0_1_55
*476 FILLER_0_1_57
*477 FILLER_0_1_69
*478 FILLER_0_1_81
*479 FILLER_0_1_93
*480 FILLER_0_20_109
*481 FILLER_0_20_121
*482 FILLER_0_20_133
*483 FILLER_0_20_139
*484 FILLER_0_20_141
*485 FILLER_0_20_15
*486 FILLER_0_20_153
*487 FILLER_0_20_165
*488 FILLER_0_20_177
*489 FILLER_0_20_189
*490 FILLER_0_20_195
*491 FILLER_0_20_197
*492 FILLER_0_20_209
*493 FILLER_0_20_221
*494 FILLER_0_20_233
*495 FILLER_0_20_245
*496 FILLER_0_20_251
*497 FILLER_0_20_253
*498 FILLER_0_20_265
*499 FILLER_0_20_27
*500 FILLER_0_20_277
*501 FILLER_0_20_289
*502 FILLER_0_20_29
*503 FILLER_0_20_3
*504 FILLER_0_20_301
*505 FILLER_0_20_307
*506 FILLER_0_20_309
*507 FILLER_0_20_321
*508 FILLER_0_20_333
*509 FILLER_0_20_41
*510 FILLER_0_20_53
*511 FILLER_0_20_65
*512 FILLER_0_20_77
*513 FILLER_0_20_83
*514 FILLER_0_20_85
*515 FILLER_0_20_97
*516 FILLER_0_21_105
*517 FILLER_0_21_111
*518 FILLER_0_21_113
*519 FILLER_0_21_125
*520 FILLER_0_21_137
*521 FILLER_0_21_149
*522 FILLER_0_21_15
*523 FILLER_0_21_161
*524 FILLER_0_21_167
*525 FILLER_0_21_169
*526 FILLER_0_21_181
*527 FILLER_0_21_193
*528 FILLER_0_21_205
*529 FILLER_0_21_217
*530 FILLER_0_21_223
*531 FILLER_0_21_225
*532 FILLER_0_21_237
*533 FILLER_0_21_249
*534 FILLER_0_21_261
*535 FILLER_0_21_27
*536 FILLER_0_21_273
*537 FILLER_0_21_279
*538 FILLER_0_21_281
*539 FILLER_0_21_293
*540 FILLER_0_21_3
*541 FILLER_0_21_305
*542 FILLER_0_21_317
*543 FILLER_0_21_329
*544 FILLER_0_21_39
*545 FILLER_0_21_51
*546 FILLER_0_21_55
*547 FILLER_0_21_57
*548 FILLER_0_21_69
*549 FILLER_0_21_81
*550 FILLER_0_21_93
*551 FILLER_0_22_109
*552 FILLER_0_22_121
*553 FILLER_0_22_133
*554 FILLER_0_22_139
*555 FILLER_0_22_141
*556 FILLER_0_22_15
*557 FILLER_0_22_153
*558 FILLER_0_22_165
*559 FILLER_0_22_177
*560 FILLER_0_22_189
*561 FILLER_0_22_195
*562 FILLER_0_22_197
*563 FILLER_0_22_209
*564 FILLER_0_22_221
*565 FILLER_0_22_233
*566 FILLER_0_22_245
*567 FILLER_0_22_251
*568 FILLER_0_22_253
*569 FILLER_0_22_265
*570 FILLER_0_22_27
*571 FILLER_0_22_277
*572 FILLER_0_22_289
*573 FILLER_0_22_29
*574 FILLER_0_22_3
*575 FILLER_0_22_301
*576 FILLER_0_22_307
*577 FILLER_0_22_309
*578 FILLER_0_22_321
*579 FILLER_0_22_333
*580 FILLER_0_22_41
*581 FILLER_0_22_53
*582 FILLER_0_22_65
*583 FILLER_0_22_77
*584 FILLER_0_22_83
*585 FILLER_0_22_85
*586 FILLER_0_22_97
*587 FILLER_0_23_105
*588 FILLER_0_23_111
*589 FILLER_0_23_113
*590 FILLER_0_23_125
*591 FILLER_0_23_137
*592 FILLER_0_23_149
*593 FILLER_0_23_15
*594 FILLER_0_23_161
*595 FILLER_0_23_167
*596 FILLER_0_23_169
*597 FILLER_0_23_181
*598 FILLER_0_23_193
*599 FILLER_0_23_205
*600 FILLER_0_23_217
*601 FILLER_0_23_223
*602 FILLER_0_23_225
*603 FILLER_0_23_237
*604 FILLER_0_23_249
*605 FILLER_0_23_261
*606 FILLER_0_23_27
*607 FILLER_0_23_273
*608 FILLER_0_23_279
*609 FILLER_0_23_281
*610 FILLER_0_23_293
*611 FILLER_0_23_3
*612 FILLER_0_23_305
*613 FILLER_0_23_317
*614 FILLER_0_23_329
*615 FILLER_0_23_39
*616 FILLER_0_23_51
*617 FILLER_0_23_55
*618 FILLER_0_23_57
*619 FILLER_0_23_69
*620 FILLER_0_23_81
*621 FILLER_0_23_93
*622 FILLER_0_24_109
*623 FILLER_0_24_121
*624 FILLER_0_24_133
*625 FILLER_0_24_139
*626 FILLER_0_24_141
*627 FILLER_0_24_15
*628 FILLER_0_24_153
*629 FILLER_0_24_165
*630 FILLER_0_24_177
*631 FILLER_0_24_189
*632 FILLER_0_24_195
*633 FILLER_0_24_197
*634 FILLER_0_24_209
*635 FILLER_0_24_221
*636 FILLER_0_24_233
*637 FILLER_0_24_245
*638 FILLER_0_24_251
*639 FILLER_0_24_253
*640 FILLER_0_24_265
*641 FILLER_0_24_27
*642 FILLER_0_24_277
*643 FILLER_0_24_289
*644 FILLER_0_24_29
*645 FILLER_0_24_3
*646 FILLER_0_24_301
*647 FILLER_0_24_307
*648 FILLER_0_24_309
*649 FILLER_0_24_321
*650 FILLER_0_24_333
*651 FILLER_0_24_41
*652 FILLER_0_24_53
*653 FILLER_0_24_65
*654 FILLER_0_24_77
*655 FILLER_0_24_83
*656 FILLER_0_24_85
*657 FILLER_0_24_97
*658 FILLER_0_25_105
*659 FILLER_0_25_111
*660 FILLER_0_25_113
*661 FILLER_0_25_125
*662 FILLER_0_25_137
*663 FILLER_0_25_149
*664 FILLER_0_25_15
*665 FILLER_0_25_161
*666 FILLER_0_25_167
*667 FILLER_0_25_169
*668 FILLER_0_25_181
*669 FILLER_0_25_193
*670 FILLER_0_25_205
*671 FILLER_0_25_217
*672 FILLER_0_25_223
*673 FILLER_0_25_225
*674 FILLER_0_25_237
*675 FILLER_0_25_249
*676 FILLER_0_25_261
*677 FILLER_0_25_27
*678 FILLER_0_25_273
*679 FILLER_0_25_279
*680 FILLER_0_25_281
*681 FILLER_0_25_293
*682 FILLER_0_25_3
*683 FILLER_0_25_305
*684 FILLER_0_25_317
*685 FILLER_0_25_329
*686 FILLER_0_25_39
*687 FILLER_0_25_51
*688 FILLER_0_25_55
*689 FILLER_0_25_57
*690 FILLER_0_25_69
*691 FILLER_0_25_81
*692 FILLER_0_25_93
*693 FILLER_0_26_109
*694 FILLER_0_26_121
*695 FILLER_0_26_133
*696 FILLER_0_26_139
*697 FILLER_0_26_141
*698 FILLER_0_26_15
*699 FILLER_0_26_153
*700 FILLER_0_26_165
*701 FILLER_0_26_177
*702 FILLER_0_26_189
*703 FILLER_0_26_195
*704 FILLER_0_26_197
*705 FILLER_0_26_209
*706 FILLER_0_26_221
*707 FILLER_0_26_233
*708 FILLER_0_26_245
*709 FILLER_0_26_251
*710 FILLER_0_26_253
*711 FILLER_0_26_265
*712 FILLER_0_26_27
*713 FILLER_0_26_277
*714 FILLER_0_26_289
*715 FILLER_0_26_29
*716 FILLER_0_26_3
*717 FILLER_0_26_301
*718 FILLER_0_26_307
*719 FILLER_0_26_309
*720 FILLER_0_26_321
*721 FILLER_0_26_333
*722 FILLER_0_26_41
*723 FILLER_0_26_53
*724 FILLER_0_26_65
*725 FILLER_0_26_77
*726 FILLER_0_26_83
*727 FILLER_0_26_85
*728 FILLER_0_26_97
*729 FILLER_0_27_105
*730 FILLER_0_27_111
*731 FILLER_0_27_113
*732 FILLER_0_27_125
*733 FILLER_0_27_137
*734 FILLER_0_27_149
*735 FILLER_0_27_15
*736 FILLER_0_27_161
*737 FILLER_0_27_167
*738 FILLER_0_27_169
*739 FILLER_0_27_181
*740 FILLER_0_27_193
*741 FILLER_0_27_205
*742 FILLER_0_27_217
*743 FILLER_0_27_223
*744 FILLER_0_27_225
*745 FILLER_0_27_237
*746 FILLER_0_27_249
*747 FILLER_0_27_261
*748 FILLER_0_27_27
*749 FILLER_0_27_273
*750 FILLER_0_27_279
*751 FILLER_0_27_281
*752 FILLER_0_27_293
*753 FILLER_0_27_3
*754 FILLER_0_27_305
*755 FILLER_0_27_317
*756 FILLER_0_27_329
*757 FILLER_0_27_39
*758 FILLER_0_27_51
*759 FILLER_0_27_55
*760 FILLER_0_27_57
*761 FILLER_0_27_69
*762 FILLER_0_27_81
*763 FILLER_0_27_93
*764 FILLER_0_28_109
*765 FILLER_0_28_121
*766 FILLER_0_28_133
*767 FILLER_0_28_139
*768 FILLER_0_28_141
*769 FILLER_0_28_15
*770 FILLER_0_28_153
*771 FILLER_0_28_165
*772 FILLER_0_28_177
*773 FILLER_0_28_189
*774 FILLER_0_28_195
*775 FILLER_0_28_197
*776 FILLER_0_28_209
*777 FILLER_0_28_221
*778 FILLER_0_28_233
*779 FILLER_0_28_245
*780 FILLER_0_28_251
*781 FILLER_0_28_253
*782 FILLER_0_28_265
*783 FILLER_0_28_27
*784 FILLER_0_28_277
*785 FILLER_0_28_289
*786 FILLER_0_28_29
*787 FILLER_0_28_3
*788 FILLER_0_28_301
*789 FILLER_0_28_307
*790 FILLER_0_28_309
*791 FILLER_0_28_321
*792 FILLER_0_28_333
*793 FILLER_0_28_41
*794 FILLER_0_28_53
*795 FILLER_0_28_65
*796 FILLER_0_28_77
*797 FILLER_0_28_83
*798 FILLER_0_28_85
*799 FILLER_0_28_97
*800 FILLER_0_29_105
*801 FILLER_0_29_111
*802 FILLER_0_29_113
*803 FILLER_0_29_125
*804 FILLER_0_29_137
*805 FILLER_0_29_149
*806 FILLER_0_29_15
*807 FILLER_0_29_161
*808 FILLER_0_29_167
*809 FILLER_0_29_169
*810 FILLER_0_29_181
*811 FILLER_0_29_193
*812 FILLER_0_29_205
*813 FILLER_0_29_217
*814 FILLER_0_29_223
*815 FILLER_0_29_225
*816 FILLER_0_29_237
*817 FILLER_0_29_249
*818 FILLER_0_29_261
*819 FILLER_0_29_27
*820 FILLER_0_29_273
*821 FILLER_0_29_279
*822 FILLER_0_29_281
*823 FILLER_0_29_293
*824 FILLER_0_29_3
*825 FILLER_0_29_305
*826 FILLER_0_29_317
*827 FILLER_0_29_329
*828 FILLER_0_29_39
*829 FILLER_0_29_51
*830 FILLER_0_29_55
*831 FILLER_0_29_57
*832 FILLER_0_29_69
*833 FILLER_0_29_81
*834 FILLER_0_29_93
*835 FILLER_0_2_109
*836 FILLER_0_2_121
*837 FILLER_0_2_133
*838 FILLER_0_2_139
*839 FILLER_0_2_141
*840 FILLER_0_2_15
*841 FILLER_0_2_153
*842 FILLER_0_2_165
*843 FILLER_0_2_177
*844 FILLER_0_2_189
*845 FILLER_0_2_195
*846 FILLER_0_2_197
*847 FILLER_0_2_209
*848 FILLER_0_2_221
*849 FILLER_0_2_233
*850 FILLER_0_2_245
*851 FILLER_0_2_251
*852 FILLER_0_2_253
*853 FILLER_0_2_265
*854 FILLER_0_2_27
*855 FILLER_0_2_277
*856 FILLER_0_2_289
*857 FILLER_0_2_29
*858 FILLER_0_2_3
*859 FILLER_0_2_301
*860 FILLER_0_2_307
*861 FILLER_0_2_309
*862 FILLER_0_2_321
*863 FILLER_0_2_333
*864 FILLER_0_2_41
*865 FILLER_0_2_53
*866 FILLER_0_2_65
*867 FILLER_0_2_77
*868 FILLER_0_2_83
*869 FILLER_0_2_85
*870 FILLER_0_2_97
*871 FILLER_0_30_109
*872 FILLER_0_30_121
*873 FILLER_0_30_133
*874 FILLER_0_30_139
*875 FILLER_0_30_141
*876 FILLER_0_30_15
*877 FILLER_0_30_153
*878 FILLER_0_30_165
*879 FILLER_0_30_177
*880 FILLER_0_30_189
*881 FILLER_0_30_195
*882 FILLER_0_30_197
*883 FILLER_0_30_209
*884 FILLER_0_30_221
*885 FILLER_0_30_233
*886 FILLER_0_30_245
*887 FILLER_0_30_251
*888 FILLER_0_30_253
*889 FILLER_0_30_265
*890 FILLER_0_30_27
*891 FILLER_0_30_277
*892 FILLER_0_30_289
*893 FILLER_0_30_29
*894 FILLER_0_30_3
*895 FILLER_0_30_301
*896 FILLER_0_30_307
*897 FILLER_0_30_309
*898 FILLER_0_30_321
*899 FILLER_0_30_333
*900 FILLER_0_30_41
*901 FILLER_0_30_53
*902 FILLER_0_30_65
*903 FILLER_0_30_77
*904 FILLER_0_30_83
*905 FILLER_0_30_85
*906 FILLER_0_30_97
*907 FILLER_0_31_105
*908 FILLER_0_31_111
*909 FILLER_0_31_113
*910 FILLER_0_31_125
*911 FILLER_0_31_137
*912 FILLER_0_31_149
*913 FILLER_0_31_15
*914 FILLER_0_31_161
*915 FILLER_0_31_167
*916 FILLER_0_31_169
*917 FILLER_0_31_181
*918 FILLER_0_31_193
*919 FILLER_0_31_205
*920 FILLER_0_31_217
*921 FILLER_0_31_223
*922 FILLER_0_31_225
*923 FILLER_0_31_237
*924 FILLER_0_31_249
*925 FILLER_0_31_261
*926 FILLER_0_31_27
*927 FILLER_0_31_273
*928 FILLER_0_31_279
*929 FILLER_0_31_281
*930 FILLER_0_31_293
*931 FILLER_0_31_3
*932 FILLER_0_31_305
*933 FILLER_0_31_317
*934 FILLER_0_31_329
*935 FILLER_0_31_39
*936 FILLER_0_31_51
*937 FILLER_0_31_55
*938 FILLER_0_31_57
*939 FILLER_0_31_69
*940 FILLER_0_31_81
*941 FILLER_0_31_93
*942 FILLER_0_32_109
*943 FILLER_0_32_121
*944 FILLER_0_32_133
*945 FILLER_0_32_139
*946 FILLER_0_32_141
*947 FILLER_0_32_15
*948 FILLER_0_32_153
*949 FILLER_0_32_165
*950 FILLER_0_32_177
*951 FILLER_0_32_189
*952 FILLER_0_32_195
*953 FILLER_0_32_197
*954 FILLER_0_32_209
*955 FILLER_0_32_221
*956 FILLER_0_32_233
*957 FILLER_0_32_245
*958 FILLER_0_32_251
*959 FILLER_0_32_253
*960 FILLER_0_32_265
*961 FILLER_0_32_27
*962 FILLER_0_32_277
*963 FILLER_0_32_289
*964 FILLER_0_32_29
*965 FILLER_0_32_3
*966 FILLER_0_32_301
*967 FILLER_0_32_307
*968 FILLER_0_32_309
*969 FILLER_0_32_321
*970 FILLER_0_32_333
*971 FILLER_0_32_41
*972 FILLER_0_32_53
*973 FILLER_0_32_65
*974 FILLER_0_32_77
*975 FILLER_0_32_83
*976 FILLER_0_32_85
*977 FILLER_0_32_97
*978 FILLER_0_33_105
*979 FILLER_0_33_111
*980 FILLER_0_33_113
*981 FILLER_0_33_125
*982 FILLER_0_33_137
*983 FILLER_0_33_149
*984 FILLER_0_33_15
*985 FILLER_0_33_161
*986 FILLER_0_33_167
*987 FILLER_0_33_169
*988 FILLER_0_33_181
*989 FILLER_0_33_193
*990 FILLER_0_33_205
*991 FILLER_0_33_217
*992 FILLER_0_33_223
*993 FILLER_0_33_225
*994 FILLER_0_33_237
*995 FILLER_0_33_249
*996 FILLER_0_33_261
*997 FILLER_0_33_27
*998 FILLER_0_33_273
*999 FILLER_0_33_279
*1000 FILLER_0_33_281
*1001 FILLER_0_33_293
*1002 FILLER_0_33_3
*1003 FILLER_0_33_305
*1004 FILLER_0_33_317
*1005 FILLER_0_33_329
*1006 FILLER_0_33_39
*1007 FILLER_0_33_51
*1008 FILLER_0_33_55
*1009 FILLER_0_33_57
*1010 FILLER_0_33_69
*1011 FILLER_0_33_81
*1012 FILLER_0_33_93
*1013 FILLER_0_34_109
*1014 FILLER_0_34_121
*1015 FILLER_0_34_133
*1016 FILLER_0_34_139
*1017 FILLER_0_34_141
*1018 FILLER_0_34_15
*1019 FILLER_0_34_153
*1020 FILLER_0_34_165
*1021 FILLER_0_34_177
*1022 FILLER_0_34_189
*1023 FILLER_0_34_195
*1024 FILLER_0_34_197
*1025 FILLER_0_34_209
*1026 FILLER_0_34_221
*1027 FILLER_0_34_233
*1028 FILLER_0_34_245
*1029 FILLER_0_34_251
*1030 FILLER_0_34_253
*1031 FILLER_0_34_265
*1032 FILLER_0_34_27
*1033 FILLER_0_34_277
*1034 FILLER_0_34_289
*1035 FILLER_0_34_29
*1036 FILLER_0_34_3
*1037 FILLER_0_34_301
*1038 FILLER_0_34_307
*1039 FILLER_0_34_309
*1040 FILLER_0_34_321
*1041 FILLER_0_34_333
*1042 FILLER_0_34_41
*1043 FILLER_0_34_53
*1044 FILLER_0_34_65
*1045 FILLER_0_34_77
*1046 FILLER_0_34_83
*1047 FILLER_0_34_85
*1048 FILLER_0_34_97
*1049 FILLER_0_35_105
*1050 FILLER_0_35_111
*1051 FILLER_0_35_113
*1052 FILLER_0_35_125
*1053 FILLER_0_35_137
*1054 FILLER_0_35_149
*1055 FILLER_0_35_15
*1056 FILLER_0_35_161
*1057 FILLER_0_35_167
*1058 FILLER_0_35_169
*1059 FILLER_0_35_181
*1060 FILLER_0_35_193
*1061 FILLER_0_35_205
*1062 FILLER_0_35_217
*1063 FILLER_0_35_223
*1064 FILLER_0_35_225
*1065 FILLER_0_35_237
*1066 FILLER_0_35_249
*1067 FILLER_0_35_261
*1068 FILLER_0_35_27
*1069 FILLER_0_35_273
*1070 FILLER_0_35_279
*1071 FILLER_0_35_281
*1072 FILLER_0_35_293
*1073 FILLER_0_35_3
*1074 FILLER_0_35_305
*1075 FILLER_0_35_317
*1076 FILLER_0_35_329
*1077 FILLER_0_35_39
*1078 FILLER_0_35_51
*1079 FILLER_0_35_55
*1080 FILLER_0_35_57
*1081 FILLER_0_35_69
*1082 FILLER_0_35_81
*1083 FILLER_0_35_93
*1084 FILLER_0_36_109
*1085 FILLER_0_36_121
*1086 FILLER_0_36_133
*1087 FILLER_0_36_139
*1088 FILLER_0_36_141
*1089 FILLER_0_36_15
*1090 FILLER_0_36_153
*1091 FILLER_0_36_165
*1092 FILLER_0_36_177
*1093 FILLER_0_36_189
*1094 FILLER_0_36_195
*1095 FILLER_0_36_197
*1096 FILLER_0_36_209
*1097 FILLER_0_36_221
*1098 FILLER_0_36_233
*1099 FILLER_0_36_245
*1100 FILLER_0_36_251
*1101 FILLER_0_36_253
*1102 FILLER_0_36_265
*1103 FILLER_0_36_27
*1104 FILLER_0_36_277
*1105 FILLER_0_36_289
*1106 FILLER_0_36_29
*1107 FILLER_0_36_3
*1108 FILLER_0_36_301
*1109 FILLER_0_36_307
*1110 FILLER_0_36_309
*1111 FILLER_0_36_321
*1112 FILLER_0_36_333
*1113 FILLER_0_36_41
*1114 FILLER_0_36_53
*1115 FILLER_0_36_65
*1116 FILLER_0_36_77
*1117 FILLER_0_36_83
*1118 FILLER_0_36_85
*1119 FILLER_0_36_97
*1120 FILLER_0_37_105
*1121 FILLER_0_37_111
*1122 FILLER_0_37_113
*1123 FILLER_0_37_125
*1124 FILLER_0_37_137
*1125 FILLER_0_37_149
*1126 FILLER_0_37_15
*1127 FILLER_0_37_161
*1128 FILLER_0_37_167
*1129 FILLER_0_37_169
*1130 FILLER_0_37_181
*1131 FILLER_0_37_193
*1132 FILLER_0_37_205
*1133 FILLER_0_37_217
*1134 FILLER_0_37_223
*1135 FILLER_0_37_225
*1136 FILLER_0_37_237
*1137 FILLER_0_37_249
*1138 FILLER_0_37_261
*1139 FILLER_0_37_27
*1140 FILLER_0_37_273
*1141 FILLER_0_37_279
*1142 FILLER_0_37_281
*1143 FILLER_0_37_293
*1144 FILLER_0_37_3
*1145 FILLER_0_37_302
*1146 FILLER_0_37_314
*1147 FILLER_0_37_326
*1148 FILLER_0_37_334
*1149 FILLER_0_37_39
*1150 FILLER_0_37_51
*1151 FILLER_0_37_55
*1152 FILLER_0_37_57
*1153 FILLER_0_37_69
*1154 FILLER_0_37_81
*1155 FILLER_0_37_93
*1156 FILLER_0_38_10
*1157 FILLER_0_38_102
*1158 FILLER_0_38_106
*1159 FILLER_0_38_110
*1160 FILLER_0_38_113
*1161 FILLER_0_38_118
*1162 FILLER_0_38_122
*1163 FILLER_0_38_126
*1164 FILLER_0_38_130
*1165 FILLER_0_38_134
*1166 FILLER_0_38_14
*1167 FILLER_0_38_144
*1168 FILLER_0_38_152
*1169 FILLER_0_38_158
*1170 FILLER_0_38_162
*1171 FILLER_0_38_166
*1172 FILLER_0_38_169
*1173 FILLER_0_38_174
*1174 FILLER_0_38_178
*1175 FILLER_0_38_18
*1176 FILLER_0_38_182
*1177 FILLER_0_38_194
*1178 FILLER_0_38_197
*1179 FILLER_0_38_209
*1180 FILLER_0_38_22
*1181 FILLER_0_38_221
*1182 FILLER_0_38_225
*1183 FILLER_0_38_237
*1184 FILLER_0_38_249
*1185 FILLER_0_38_259
*1186 FILLER_0_38_267
*1187 FILLER_0_38_274
*1188 FILLER_0_38_281
*1189 FILLER_0_38_287
*1190 FILLER_0_38_306
*1191 FILLER_0_38_32
*1192 FILLER_0_38_321
*1193 FILLER_0_38_333
*1194 FILLER_0_38_38
*1195 FILLER_0_38_42
*1196 FILLER_0_38_46
*1197 FILLER_0_38_50
*1198 FILLER_0_38_54
*1199 FILLER_0_38_57
*1200 FILLER_0_38_6
*1201 FILLER_0_38_62
*1202 FILLER_0_38_66
*1203 FILLER_0_38_70
*1204 FILLER_0_38_74
*1205 FILLER_0_38_78
*1206 FILLER_0_38_88
*1207 FILLER_0_38_94
*1208 FILLER_0_38_98
*1209 FILLER_0_3_105
*1210 FILLER_0_3_111
*1211 FILLER_0_3_113
*1212 FILLER_0_3_125
*1213 FILLER_0_3_137
*1214 FILLER_0_3_149
*1215 FILLER_0_3_15
*1216 FILLER_0_3_161
*1217 FILLER_0_3_167
*1218 FILLER_0_3_169
*1219 FILLER_0_3_181
*1220 FILLER_0_3_193
*1221 FILLER_0_3_205
*1222 FILLER_0_3_217
*1223 FILLER_0_3_223
*1224 FILLER_0_3_225
*1225 FILLER_0_3_237
*1226 FILLER_0_3_249
*1227 FILLER_0_3_261
*1228 FILLER_0_3_27
*1229 FILLER_0_3_273
*1230 FILLER_0_3_279
*1231 FILLER_0_3_281
*1232 FILLER_0_3_293
*1233 FILLER_0_3_3
*1234 FILLER_0_3_305
*1235 FILLER_0_3_317
*1236 FILLER_0_3_329
*1237 FILLER_0_3_39
*1238 FILLER_0_3_51
*1239 FILLER_0_3_55
*1240 FILLER_0_3_57
*1241 FILLER_0_3_69
*1242 FILLER_0_3_81
*1243 FILLER_0_3_93
*1244 FILLER_0_4_109
*1245 FILLER_0_4_121
*1246 FILLER_0_4_133
*1247 FILLER_0_4_139
*1248 FILLER_0_4_141
*1249 FILLER_0_4_15
*1250 FILLER_0_4_153
*1251 FILLER_0_4_165
*1252 FILLER_0_4_177
*1253 FILLER_0_4_189
*1254 FILLER_0_4_195
*1255 FILLER_0_4_197
*1256 FILLER_0_4_209
*1257 FILLER_0_4_221
*1258 FILLER_0_4_233
*1259 FILLER_0_4_245
*1260 FILLER_0_4_251
*1261 FILLER_0_4_253
*1262 FILLER_0_4_265
*1263 FILLER_0_4_27
*1264 FILLER_0_4_277
*1265 FILLER_0_4_289
*1266 FILLER_0_4_29
*1267 FILLER_0_4_3
*1268 FILLER_0_4_301
*1269 FILLER_0_4_307
*1270 FILLER_0_4_309
*1271 FILLER_0_4_321
*1272 FILLER_0_4_333
*1273 FILLER_0_4_41
*1274 FILLER_0_4_53
*1275 FILLER_0_4_65
*1276 FILLER_0_4_77
*1277 FILLER_0_4_83
*1278 FILLER_0_4_85
*1279 FILLER_0_4_97
*1280 FILLER_0_5_105
*1281 FILLER_0_5_111
*1282 FILLER_0_5_113
*1283 FILLER_0_5_125
*1284 FILLER_0_5_137
*1285 FILLER_0_5_149
*1286 FILLER_0_5_15
*1287 FILLER_0_5_161
*1288 FILLER_0_5_167
*1289 FILLER_0_5_169
*1290 FILLER_0_5_181
*1291 FILLER_0_5_193
*1292 FILLER_0_5_205
*1293 FILLER_0_5_217
*1294 FILLER_0_5_223
*1295 FILLER_0_5_225
*1296 FILLER_0_5_237
*1297 FILLER_0_5_249
*1298 FILLER_0_5_261
*1299 FILLER_0_5_27
*1300 FILLER_0_5_273
*1301 FILLER_0_5_279
*1302 FILLER_0_5_281
*1303 FILLER_0_5_293
*1304 FILLER_0_5_3
*1305 FILLER_0_5_305
*1306 FILLER_0_5_317
*1307 FILLER_0_5_329
*1308 FILLER_0_5_39
*1309 FILLER_0_5_51
*1310 FILLER_0_5_55
*1311 FILLER_0_5_57
*1312 FILLER_0_5_69
*1313 FILLER_0_5_81
*1314 FILLER_0_5_93
*1315 FILLER_0_6_109
*1316 FILLER_0_6_121
*1317 FILLER_0_6_133
*1318 FILLER_0_6_139
*1319 FILLER_0_6_141
*1320 FILLER_0_6_15
*1321 FILLER_0_6_153
*1322 FILLER_0_6_165
*1323 FILLER_0_6_177
*1324 FILLER_0_6_189
*1325 FILLER_0_6_195
*1326 FILLER_0_6_197
*1327 FILLER_0_6_209
*1328 FILLER_0_6_221
*1329 FILLER_0_6_233
*1330 FILLER_0_6_245
*1331 FILLER_0_6_251
*1332 FILLER_0_6_253
*1333 FILLER_0_6_265
*1334 FILLER_0_6_27
*1335 FILLER_0_6_277
*1336 FILLER_0_6_289
*1337 FILLER_0_6_29
*1338 FILLER_0_6_3
*1339 FILLER_0_6_301
*1340 FILLER_0_6_307
*1341 FILLER_0_6_309
*1342 FILLER_0_6_321
*1343 FILLER_0_6_333
*1344 FILLER_0_6_41
*1345 FILLER_0_6_53
*1346 FILLER_0_6_65
*1347 FILLER_0_6_77
*1348 FILLER_0_6_83
*1349 FILLER_0_6_85
*1350 FILLER_0_6_97
*1351 FILLER_0_7_105
*1352 FILLER_0_7_111
*1353 FILLER_0_7_113
*1354 FILLER_0_7_125
*1355 FILLER_0_7_137
*1356 FILLER_0_7_149
*1357 FILLER_0_7_15
*1358 FILLER_0_7_161
*1359 FILLER_0_7_167
*1360 FILLER_0_7_169
*1361 FILLER_0_7_181
*1362 FILLER_0_7_193
*1363 FILLER_0_7_205
*1364 FILLER_0_7_217
*1365 FILLER_0_7_223
*1366 FILLER_0_7_225
*1367 FILLER_0_7_237
*1368 FILLER_0_7_249
*1369 FILLER_0_7_261
*1370 FILLER_0_7_27
*1371 FILLER_0_7_273
*1372 FILLER_0_7_279
*1373 FILLER_0_7_281
*1374 FILLER_0_7_293
*1375 FILLER_0_7_3
*1376 FILLER_0_7_305
*1377 FILLER_0_7_317
*1378 FILLER_0_7_329
*1379 FILLER_0_7_39
*1380 FILLER_0_7_51
*1381 FILLER_0_7_55
*1382 FILLER_0_7_57
*1383 FILLER_0_7_69
*1384 FILLER_0_7_81
*1385 FILLER_0_7_93
*1386 FILLER_0_8_109
*1387 FILLER_0_8_121
*1388 FILLER_0_8_133
*1389 FILLER_0_8_139
*1390 FILLER_0_8_141
*1391 FILLER_0_8_15
*1392 FILLER_0_8_153
*1393 FILLER_0_8_165
*1394 FILLER_0_8_177
*1395 FILLER_0_8_189
*1396 FILLER_0_8_195
*1397 FILLER_0_8_197
*1398 FILLER_0_8_209
*1399 FILLER_0_8_221
*1400 FILLER_0_8_233
*1401 FILLER_0_8_245
*1402 FILLER_0_8_251
*1403 FILLER_0_8_253
*1404 FILLER_0_8_265
*1405 FILLER_0_8_27
*1406 FILLER_0_8_277
*1407 FILLER_0_8_289
*1408 FILLER_0_8_29
*1409 FILLER_0_8_3
*1410 FILLER_0_8_301
*1411 FILLER_0_8_307
*1412 FILLER_0_8_309
*1413 FILLER_0_8_321
*1414 FILLER_0_8_333
*1415 FILLER_0_8_41
*1416 FILLER_0_8_53
*1417 FILLER_0_8_65
*1418 FILLER_0_8_77
*1419 FILLER_0_8_83
*1420 FILLER_0_8_85
*1421 FILLER_0_8_97
*1422 FILLER_0_9_105
*1423 FILLER_0_9_111
*1424 FILLER_0_9_113
*1425 FILLER_0_9_125
*1426 FILLER_0_9_137
*1427 FILLER_0_9_149
*1428 FILLER_0_9_15
*1429 FILLER_0_9_161
*1430 FILLER_0_9_167
*1431 FILLER_0_9_169
*1432 FILLER_0_9_181
*1433 FILLER_0_9_193
*1434 FILLER_0_9_205
*1435 FILLER_0_9_217
*1436 FILLER_0_9_223
*1437 FILLER_0_9_225
*1438 FILLER_0_9_237
*1439 FILLER_0_9_249
*1440 FILLER_0_9_261
*1441 FILLER_0_9_27
*1442 FILLER_0_9_273
*1443 FILLER_0_9_279
*1444 FILLER_0_9_281
*1445 FILLER_0_9_293
*1446 FILLER_0_9_3
*1447 FILLER_0_9_305
*1448 FILLER_0_9_317
*1449 FILLER_0_9_329
*1450 FILLER_0_9_39
*1451 FILLER_0_9_51
*1452 FILLER_0_9_55
*1453 FILLER_0_9_57
*1454 FILLER_0_9_69
*1455 FILLER_0_9_81
*1456 FILLER_0_9_93
*1457 PHY_EDGE_ROW_0_Left_39
*1458 PHY_EDGE_ROW_0_Right_0