*SPEF "ieee 1481-1999"
*DESIGN "tt_um_openframe_mask_rev"
*DATE "11:11:11 Fri 11 11, 1111"
*VENDOR "OpenRCX"
*PROGRAM "Parallel Extraction"
*VERSION "1.0"
*DESIGN_FLOW "NAME_SCOPE LOCAL" "PIN_CAP NONE"
*DIVIDER /
*DELIMITER :
*BUS_DELIMITER []
*T_UNIT 1 NS
*C_UNIT 1 PF
*R_UNIT 1 OHM
*L_UNIT 1 HENRY

*NAME_MAP
*3 clk
*4 ena
*5 mask_rev[0]
*6 mask_rev[10]
*7 mask_rev[11]
*8 mask_rev[12]
*9 mask_rev[13]
*10 mask_rev[14]
*11 mask_rev[15]
*12 mask_rev[16]
*13 mask_rev[17]
*14 mask_rev[18]
*15 mask_rev[19]
*16 mask_rev[1]
*17 mask_rev[20]
*18 mask_rev[21]
*19 mask_rev[22]
*20 mask_rev[23]
*21 mask_rev[24]
*22 mask_rev[25]
*23 mask_rev[26]
*24 mask_rev[27]
*25 mask_rev[28]
*26 mask_rev[29]
*27 mask_rev[2]
*28 mask_rev[30]
*29 mask_rev[31]
*30 mask_rev[3]
*31 mask_rev[4]
*32 mask_rev[5]
*33 mask_rev[6]
*34 mask_rev[7]
*35 mask_rev[8]
*36 mask_rev[9]
*37 rst_n
*38 ui_in[0]
*39 ui_in[1]
*40 ui_in[2]
*41 ui_in[3]
*42 ui_in[4]
*43 ui_in[5]
*44 ui_in[6]
*45 ui_in[7]
*46 uio_in[0]
*47 uio_in[1]
*48 uio_in[2]
*49 uio_in[3]
*50 uio_in[4]
*51 uio_in[5]
*52 uio_in[6]
*53 uio_in[7]
*54 net37
*55 net38
*56 net39
*57 net40
*58 net41
*59 net42
*60 net43
*61 net44
*62 uio_out[0]
*63 uio_out[1]
*64 uio_out[2]
*65 uio_out[3]
*66 uio_out[4]
*67 uio_out[5]
*68 uio_out[6]
*69 uio_out[7]
*70 uo_out[0]
*71 uo_out[1]
*72 uo_out[2]
*73 uo_out[3]
*74 uo_out[4]
*75 uo_out[5]
*76 uo_out[6]
*77 net36
*78 _00_
*79 _01_
*80 _02_
*81 _03_
*82 _04_
*83 _05_
*84 _06_
*85 _07_
*86 _08_
*87 _09_
*88 _10_
*89 _11_
*90 _12_
*91 _13_
*92 _14_
*93 _15_
*94 _16_
*95 _17_
*96 _18_
*97 _19_
*98 _20_
*99 _21_
*100 _22_
*101 _23_
*102 _24_
*103 _25_
*104 _26_
*105 _27_
*106 _28_
*107 _29_
*108 _30_
*109 _31_
*110 _32_
*111 _33_
*112 net1
*113 net10
*114 net11
*115 net12
*116 net13
*117 net14
*118 net15
*119 net16
*120 net17
*121 net18
*122 net19
*123 net2
*124 net20
*125 net21
*126 net22
*127 net23
*128 net24
*129 net25
*130 net26
*131 net27
*132 net28
*133 net29
*134 net3
*135 net30
*136 net31
*137 net32
*138 net33
*139 net34
*140 net35
*141 net4
*142 net5
*143 net6
*144 net7
*145 net8
*146 net9
*147 FILLER_0_0_113
*148 FILLER_0_0_138
*149 FILLER_0_0_15
*150 FILLER_0_0_225
*151 FILLER_0_0_230
*152 FILLER_0_0_242
*153 FILLER_0_0_250
*154 FILLER_0_0_253
*155 FILLER_0_0_265
*156 FILLER_0_0_27
*157 FILLER_0_0_277
*158 FILLER_0_0_281
*159 FILLER_0_0_29
*160 FILLER_0_0_293
*161 FILLER_0_0_3
*162 FILLER_0_0_305
*163 FILLER_0_0_309
*164 FILLER_0_0_321
*165 FILLER_0_0_44
*166 FILLER_0_0_50
*167 FILLER_0_0_57
*168 FILLER_0_0_62
*169 FILLER_0_0_68
*170 FILLER_0_0_74
*171 FILLER_0_0_80
*172 FILLER_0_10_109
*173 FILLER_0_10_121
*174 FILLER_0_10_133
*175 FILLER_0_10_139
*176 FILLER_0_10_141
*177 FILLER_0_10_15
*178 FILLER_0_10_153
*179 FILLER_0_10_165
*180 FILLER_0_10_177
*181 FILLER_0_10_189
*182 FILLER_0_10_195
*183 FILLER_0_10_197
*184 FILLER_0_10_209
*185 FILLER_0_10_221
*186 FILLER_0_10_233
*187 FILLER_0_10_245
*188 FILLER_0_10_251
*189 FILLER_0_10_253
*190 FILLER_0_10_265
*191 FILLER_0_10_27
*192 FILLER_0_10_277
*193 FILLER_0_10_289
*194 FILLER_0_10_29
*195 FILLER_0_10_3
*196 FILLER_0_10_301
*197 FILLER_0_10_307
*198 FILLER_0_10_309
*199 FILLER_0_10_321
*200 FILLER_0_10_41
*201 FILLER_0_10_53
*202 FILLER_0_10_65
*203 FILLER_0_10_77
*204 FILLER_0_10_83
*205 FILLER_0_10_85
*206 FILLER_0_10_97
*207 FILLER_0_11_105
*208 FILLER_0_11_111
*209 FILLER_0_11_113
*210 FILLER_0_11_125
*211 FILLER_0_11_137
*212 FILLER_0_11_149
*213 FILLER_0_11_15
*214 FILLER_0_11_161
*215 FILLER_0_11_167
*216 FILLER_0_11_169
*217 FILLER_0_11_181
*218 FILLER_0_11_193
*219 FILLER_0_11_205
*220 FILLER_0_11_217
*221 FILLER_0_11_223
*222 FILLER_0_11_225
*223 FILLER_0_11_237
*224 FILLER_0_11_249
*225 FILLER_0_11_261
*226 FILLER_0_11_27
*227 FILLER_0_11_273
*228 FILLER_0_11_279
*229 FILLER_0_11_281
*230 FILLER_0_11_293
*231 FILLER_0_11_3
*232 FILLER_0_11_305
*233 FILLER_0_11_317
*234 FILLER_0_11_325
*235 FILLER_0_11_39
*236 FILLER_0_11_51
*237 FILLER_0_11_55
*238 FILLER_0_11_57
*239 FILLER_0_11_69
*240 FILLER_0_11_81
*241 FILLER_0_11_93
*242 FILLER_0_12_109
*243 FILLER_0_12_121
*244 FILLER_0_12_133
*245 FILLER_0_12_139
*246 FILLER_0_12_141
*247 FILLER_0_12_15
*248 FILLER_0_12_153
*249 FILLER_0_12_165
*250 FILLER_0_12_177
*251 FILLER_0_12_189
*252 FILLER_0_12_195
*253 FILLER_0_12_197
*254 FILLER_0_12_209
*255 FILLER_0_12_221
*256 FILLER_0_12_233
*257 FILLER_0_12_245
*258 FILLER_0_12_251
*259 FILLER_0_12_253
*260 FILLER_0_12_265
*261 FILLER_0_12_27
*262 FILLER_0_12_277
*263 FILLER_0_12_289
*264 FILLER_0_12_29
*265 FILLER_0_12_3
*266 FILLER_0_12_301
*267 FILLER_0_12_307
*268 FILLER_0_12_309
*269 FILLER_0_12_321
*270 FILLER_0_12_41
*271 FILLER_0_12_53
*272 FILLER_0_12_65
*273 FILLER_0_12_77
*274 FILLER_0_12_83
*275 FILLER_0_12_85
*276 FILLER_0_12_97
*277 FILLER_0_13_105
*278 FILLER_0_13_111
*279 FILLER_0_13_113
*280 FILLER_0_13_125
*281 FILLER_0_13_137
*282 FILLER_0_13_149
*283 FILLER_0_13_15
*284 FILLER_0_13_161
*285 FILLER_0_13_167
*286 FILLER_0_13_169
*287 FILLER_0_13_181
*288 FILLER_0_13_193
*289 FILLER_0_13_205
*290 FILLER_0_13_217
*291 FILLER_0_13_223
*292 FILLER_0_13_225
*293 FILLER_0_13_237
*294 FILLER_0_13_249
*295 FILLER_0_13_261
*296 FILLER_0_13_27
*297 FILLER_0_13_273
*298 FILLER_0_13_279
*299 FILLER_0_13_281
*300 FILLER_0_13_293
*301 FILLER_0_13_3
*302 FILLER_0_13_305
*303 FILLER_0_13_317
*304 FILLER_0_13_325
*305 FILLER_0_13_39
*306 FILLER_0_13_51
*307 FILLER_0_13_55
*308 FILLER_0_13_57
*309 FILLER_0_13_69
*310 FILLER_0_13_81
*311 FILLER_0_13_93
*312 FILLER_0_14_109
*313 FILLER_0_14_121
*314 FILLER_0_14_133
*315 FILLER_0_14_139
*316 FILLER_0_14_141
*317 FILLER_0_14_15
*318 FILLER_0_14_153
*319 FILLER_0_14_165
*320 FILLER_0_14_177
*321 FILLER_0_14_189
*322 FILLER_0_14_195
*323 FILLER_0_14_197
*324 FILLER_0_14_209
*325 FILLER_0_14_221
*326 FILLER_0_14_233
*327 FILLER_0_14_245
*328 FILLER_0_14_251
*329 FILLER_0_14_253
*330 FILLER_0_14_265
*331 FILLER_0_14_27
*332 FILLER_0_14_277
*333 FILLER_0_14_289
*334 FILLER_0_14_29
*335 FILLER_0_14_3
*336 FILLER_0_14_301
*337 FILLER_0_14_307
*338 FILLER_0_14_309
*339 FILLER_0_14_321
*340 FILLER_0_14_41
*341 FILLER_0_14_53
*342 FILLER_0_14_65
*343 FILLER_0_14_77
*344 FILLER_0_14_83
*345 FILLER_0_14_85
*346 FILLER_0_14_97
*347 FILLER_0_15_105
*348 FILLER_0_15_111
*349 FILLER_0_15_113
*350 FILLER_0_15_125
*351 FILLER_0_15_137
*352 FILLER_0_15_149
*353 FILLER_0_15_15
*354 FILLER_0_15_161
*355 FILLER_0_15_167
*356 FILLER_0_15_169
*357 FILLER_0_15_181
*358 FILLER_0_15_193
*359 FILLER_0_15_205
*360 FILLER_0_15_217
*361 FILLER_0_15_223
*362 FILLER_0_15_225
*363 FILLER_0_15_237
*364 FILLER_0_15_249
*365 FILLER_0_15_261
*366 FILLER_0_15_27
*367 FILLER_0_15_273
*368 FILLER_0_15_279
*369 FILLER_0_15_281
*370 FILLER_0_15_293
*371 FILLER_0_15_3
*372 FILLER_0_15_305
*373 FILLER_0_15_317
*374 FILLER_0_15_325
*375 FILLER_0_15_39
*376 FILLER_0_15_51
*377 FILLER_0_15_55
*378 FILLER_0_15_57
*379 FILLER_0_15_69
*380 FILLER_0_15_81
*381 FILLER_0_15_93
*382 FILLER_0_16_109
*383 FILLER_0_16_121
*384 FILLER_0_16_133
*385 FILLER_0_16_139
*386 FILLER_0_16_141
*387 FILLER_0_16_15
*388 FILLER_0_16_153
*389 FILLER_0_16_165
*390 FILLER_0_16_177
*391 FILLER_0_16_189
*392 FILLER_0_16_195
*393 FILLER_0_16_197
*394 FILLER_0_16_209
*395 FILLER_0_16_221
*396 FILLER_0_16_233
*397 FILLER_0_16_245
*398 FILLER_0_16_251
*399 FILLER_0_16_253
*400 FILLER_0_16_265
*401 FILLER_0_16_27
*402 FILLER_0_16_277
*403 FILLER_0_16_289
*404 FILLER_0_16_29
*405 FILLER_0_16_3
*406 FILLER_0_16_301
*407 FILLER_0_16_307
*408 FILLER_0_16_309
*409 FILLER_0_16_321
*410 FILLER_0_16_41
*411 FILLER_0_16_53
*412 FILLER_0_16_65
*413 FILLER_0_16_77
*414 FILLER_0_16_83
*415 FILLER_0_16_85
*416 FILLER_0_16_97
*417 FILLER_0_17_105
*418 FILLER_0_17_111
*419 FILLER_0_17_113
*420 FILLER_0_17_125
*421 FILLER_0_17_137
*422 FILLER_0_17_149
*423 FILLER_0_17_15
*424 FILLER_0_17_161
*425 FILLER_0_17_167
*426 FILLER_0_17_169
*427 FILLER_0_17_181
*428 FILLER_0_17_193
*429 FILLER_0_17_205
*430 FILLER_0_17_217
*431 FILLER_0_17_223
*432 FILLER_0_17_225
*433 FILLER_0_17_237
*434 FILLER_0_17_249
*435 FILLER_0_17_261
*436 FILLER_0_17_27
*437 FILLER_0_17_273
*438 FILLER_0_17_279
*439 FILLER_0_17_281
*440 FILLER_0_17_293
*441 FILLER_0_17_3
*442 FILLER_0_17_305
*443 FILLER_0_17_317
*444 FILLER_0_17_325
*445 FILLER_0_17_39
*446 FILLER_0_17_51
*447 FILLER_0_17_55
*448 FILLER_0_17_57
*449 FILLER_0_17_69
*450 FILLER_0_17_81
*451 FILLER_0_17_93
*452 FILLER_0_18_109
*453 FILLER_0_18_121
*454 FILLER_0_18_133
*455 FILLER_0_18_139
*456 FILLER_0_18_141
*457 FILLER_0_18_15
*458 FILLER_0_18_153
*459 FILLER_0_18_165
*460 FILLER_0_18_177
*461 FILLER_0_18_189
*462 FILLER_0_18_195
*463 FILLER_0_18_197
*464 FILLER_0_18_209
*465 FILLER_0_18_221
*466 FILLER_0_18_233
*467 FILLER_0_18_245
*468 FILLER_0_18_251
*469 FILLER_0_18_253
*470 FILLER_0_18_265
*471 FILLER_0_18_27
*472 FILLER_0_18_277
*473 FILLER_0_18_289
*474 FILLER_0_18_29
*475 FILLER_0_18_3
*476 FILLER_0_18_301
*477 FILLER_0_18_307
*478 FILLER_0_18_309
*479 FILLER_0_18_321
*480 FILLER_0_18_41
*481 FILLER_0_18_53
*482 FILLER_0_18_65
*483 FILLER_0_18_77
*484 FILLER_0_18_83
*485 FILLER_0_18_85
*486 FILLER_0_18_97
*487 FILLER_0_19_105
*488 FILLER_0_19_111
*489 FILLER_0_19_113
*490 FILLER_0_19_125
*491 FILLER_0_19_137
*492 FILLER_0_19_149
*493 FILLER_0_19_15
*494 FILLER_0_19_161
*495 FILLER_0_19_167
*496 FILLER_0_19_169
*497 FILLER_0_19_181
*498 FILLER_0_19_193
*499 FILLER_0_19_205
*500 FILLER_0_19_217
*501 FILLER_0_19_223
*502 FILLER_0_19_225
*503 FILLER_0_19_237
*504 FILLER_0_19_249
*505 FILLER_0_19_261
*506 FILLER_0_19_27
*507 FILLER_0_19_273
*508 FILLER_0_19_279
*509 FILLER_0_19_281
*510 FILLER_0_19_293
*511 FILLER_0_19_3
*512 FILLER_0_19_305
*513 FILLER_0_19_317
*514 FILLER_0_19_325
*515 FILLER_0_19_39
*516 FILLER_0_19_51
*517 FILLER_0_19_55
*518 FILLER_0_19_57
*519 FILLER_0_19_69
*520 FILLER_0_19_81
*521 FILLER_0_19_93
*522 FILLER_0_1_104
*523 FILLER_0_1_110
*524 FILLER_0_1_116
*525 FILLER_0_1_124
*526 FILLER_0_1_128
*527 FILLER_0_1_15
*528 FILLER_0_1_160
*529 FILLER_0_1_164
*530 FILLER_0_1_205
*531 FILLER_0_1_217
*532 FILLER_0_1_223
*533 FILLER_0_1_225
*534 FILLER_0_1_237
*535 FILLER_0_1_249
*536 FILLER_0_1_261
*537 FILLER_0_1_27
*538 FILLER_0_1_273
*539 FILLER_0_1_279
*540 FILLER_0_1_281
*541 FILLER_0_1_293
*542 FILLER_0_1_3
*543 FILLER_0_1_305
*544 FILLER_0_1_317
*545 FILLER_0_1_325
*546 FILLER_0_1_39
*547 FILLER_0_1_51
*548 FILLER_0_1_55
*549 FILLER_0_1_57
*550 FILLER_0_1_69
*551 FILLER_0_1_81
*552 FILLER_0_1_85
*553 FILLER_0_1_98
*554 FILLER_0_20_109
*555 FILLER_0_20_121
*556 FILLER_0_20_133
*557 FILLER_0_20_139
*558 FILLER_0_20_141
*559 FILLER_0_20_15
*560 FILLER_0_20_153
*561 FILLER_0_20_165
*562 FILLER_0_20_177
*563 FILLER_0_20_189
*564 FILLER_0_20_195
*565 FILLER_0_20_197
*566 FILLER_0_20_209
*567 FILLER_0_20_221
*568 FILLER_0_20_233
*569 FILLER_0_20_245
*570 FILLER_0_20_251
*571 FILLER_0_20_253
*572 FILLER_0_20_265
*573 FILLER_0_20_27
*574 FILLER_0_20_277
*575 FILLER_0_20_289
*576 FILLER_0_20_29
*577 FILLER_0_20_3
*578 FILLER_0_20_301
*579 FILLER_0_20_307
*580 FILLER_0_20_309
*581 FILLER_0_20_321
*582 FILLER_0_20_41
*583 FILLER_0_20_53
*584 FILLER_0_20_65
*585 FILLER_0_20_77
*586 FILLER_0_20_83
*587 FILLER_0_20_85
*588 FILLER_0_20_97
*589 FILLER_0_21_105
*590 FILLER_0_21_111
*591 FILLER_0_21_113
*592 FILLER_0_21_125
*593 FILLER_0_21_137
*594 FILLER_0_21_149
*595 FILLER_0_21_15
*596 FILLER_0_21_161
*597 FILLER_0_21_167
*598 FILLER_0_21_169
*599 FILLER_0_21_181
*600 FILLER_0_21_193
*601 FILLER_0_21_205
*602 FILLER_0_21_217
*603 FILLER_0_21_223
*604 FILLER_0_21_225
*605 FILLER_0_21_237
*606 FILLER_0_21_249
*607 FILLER_0_21_261
*608 FILLER_0_21_27
*609 FILLER_0_21_273
*610 FILLER_0_21_279
*611 FILLER_0_21_281
*612 FILLER_0_21_293
*613 FILLER_0_21_3
*614 FILLER_0_21_305
*615 FILLER_0_21_317
*616 FILLER_0_21_325
*617 FILLER_0_21_39
*618 FILLER_0_21_51
*619 FILLER_0_21_55
*620 FILLER_0_21_57
*621 FILLER_0_21_69
*622 FILLER_0_21_81
*623 FILLER_0_21_93
*624 FILLER_0_22_109
*625 FILLER_0_22_121
*626 FILLER_0_22_133
*627 FILLER_0_22_139
*628 FILLER_0_22_141
*629 FILLER_0_22_15
*630 FILLER_0_22_153
*631 FILLER_0_22_165
*632 FILLER_0_22_177
*633 FILLER_0_22_189
*634 FILLER_0_22_195
*635 FILLER_0_22_197
*636 FILLER_0_22_209
*637 FILLER_0_22_221
*638 FILLER_0_22_233
*639 FILLER_0_22_245
*640 FILLER_0_22_251
*641 FILLER_0_22_253
*642 FILLER_0_22_265
*643 FILLER_0_22_27
*644 FILLER_0_22_277
*645 FILLER_0_22_289
*646 FILLER_0_22_29
*647 FILLER_0_22_3
*648 FILLER_0_22_301
*649 FILLER_0_22_307
*650 FILLER_0_22_309
*651 FILLER_0_22_321
*652 FILLER_0_22_41
*653 FILLER_0_22_53
*654 FILLER_0_22_65
*655 FILLER_0_22_77
*656 FILLER_0_22_83
*657 FILLER_0_22_85
*658 FILLER_0_22_97
*659 FILLER_0_23_105
*660 FILLER_0_23_111
*661 FILLER_0_23_113
*662 FILLER_0_23_125
*663 FILLER_0_23_137
*664 FILLER_0_23_149
*665 FILLER_0_23_15
*666 FILLER_0_23_161
*667 FILLER_0_23_167
*668 FILLER_0_23_169
*669 FILLER_0_23_181
*670 FILLER_0_23_193
*671 FILLER_0_23_205
*672 FILLER_0_23_217
*673 FILLER_0_23_223
*674 FILLER_0_23_225
*675 FILLER_0_23_237
*676 FILLER_0_23_249
*677 FILLER_0_23_261
*678 FILLER_0_23_27
*679 FILLER_0_23_273
*680 FILLER_0_23_279
*681 FILLER_0_23_281
*682 FILLER_0_23_293
*683 FILLER_0_23_3
*684 FILLER_0_23_305
*685 FILLER_0_23_317
*686 FILLER_0_23_325
*687 FILLER_0_23_39
*688 FILLER_0_23_51
*689 FILLER_0_23_55
*690 FILLER_0_23_57
*691 FILLER_0_23_69
*692 FILLER_0_23_81
*693 FILLER_0_23_93
*694 FILLER_0_24_109
*695 FILLER_0_24_121
*696 FILLER_0_24_133
*697 FILLER_0_24_139
*698 FILLER_0_24_141
*699 FILLER_0_24_15
*700 FILLER_0_24_153
*701 FILLER_0_24_165
*702 FILLER_0_24_177
*703 FILLER_0_24_189
*704 FILLER_0_24_195
*705 FILLER_0_24_197
*706 FILLER_0_24_209
*707 FILLER_0_24_221
*708 FILLER_0_24_233
*709 FILLER_0_24_245
*710 FILLER_0_24_251
*711 FILLER_0_24_253
*712 FILLER_0_24_265
*713 FILLER_0_24_27
*714 FILLER_0_24_277
*715 FILLER_0_24_289
*716 FILLER_0_24_29
*717 FILLER_0_24_3
*718 FILLER_0_24_301
*719 FILLER_0_24_307
*720 FILLER_0_24_309
*721 FILLER_0_24_321
*722 FILLER_0_24_41
*723 FILLER_0_24_53
*724 FILLER_0_24_65
*725 FILLER_0_24_77
*726 FILLER_0_24_83
*727 FILLER_0_24_85
*728 FILLER_0_24_97
*729 FILLER_0_25_105
*730 FILLER_0_25_111
*731 FILLER_0_25_113
*732 FILLER_0_25_125
*733 FILLER_0_25_137
*734 FILLER_0_25_149
*735 FILLER_0_25_15
*736 FILLER_0_25_161
*737 FILLER_0_25_167
*738 FILLER_0_25_169
*739 FILLER_0_25_181
*740 FILLER_0_25_193
*741 FILLER_0_25_205
*742 FILLER_0_25_217
*743 FILLER_0_25_223
*744 FILLER_0_25_225
*745 FILLER_0_25_237
*746 FILLER_0_25_249
*747 FILLER_0_25_261
*748 FILLER_0_25_27
*749 FILLER_0_25_273
*750 FILLER_0_25_279
*751 FILLER_0_25_281
*752 FILLER_0_25_293
*753 FILLER_0_25_3
*754 FILLER_0_25_305
*755 FILLER_0_25_317
*756 FILLER_0_25_325
*757 FILLER_0_25_39
*758 FILLER_0_25_51
*759 FILLER_0_25_55
*760 FILLER_0_25_57
*761 FILLER_0_25_69
*762 FILLER_0_25_81
*763 FILLER_0_25_93
*764 FILLER_0_26_109
*765 FILLER_0_26_121
*766 FILLER_0_26_133
*767 FILLER_0_26_139
*768 FILLER_0_26_141
*769 FILLER_0_26_15
*770 FILLER_0_26_153
*771 FILLER_0_26_165
*772 FILLER_0_26_177
*773 FILLER_0_26_189
*774 FILLER_0_26_195
*775 FILLER_0_26_197
*776 FILLER_0_26_209
*777 FILLER_0_26_221
*778 FILLER_0_26_233
*779 FILLER_0_26_245
*780 FILLER_0_26_251
*781 FILLER_0_26_253
*782 FILLER_0_26_265
*783 FILLER_0_26_27
*784 FILLER_0_26_277
*785 FILLER_0_26_289
*786 FILLER_0_26_29
*787 FILLER_0_26_3
*788 FILLER_0_26_301
*789 FILLER_0_26_307
*790 FILLER_0_26_309
*791 FILLER_0_26_321
*792 FILLER_0_26_41
*793 FILLER_0_26_53
*794 FILLER_0_26_65
*795 FILLER_0_26_77
*796 FILLER_0_26_83
*797 FILLER_0_26_85
*798 FILLER_0_26_97
*799 FILLER_0_27_105
*800 FILLER_0_27_111
*801 FILLER_0_27_113
*802 FILLER_0_27_125
*803 FILLER_0_27_137
*804 FILLER_0_27_149
*805 FILLER_0_27_15
*806 FILLER_0_27_161
*807 FILLER_0_27_167
*808 FILLER_0_27_169
*809 FILLER_0_27_181
*810 FILLER_0_27_193
*811 FILLER_0_27_205
*812 FILLER_0_27_217
*813 FILLER_0_27_223
*814 FILLER_0_27_225
*815 FILLER_0_27_237
*816 FILLER_0_27_249
*817 FILLER_0_27_261
*818 FILLER_0_27_27
*819 FILLER_0_27_273
*820 FILLER_0_27_279
*821 FILLER_0_27_281
*822 FILLER_0_27_293
*823 FILLER_0_27_3
*824 FILLER_0_27_305
*825 FILLER_0_27_317
*826 FILLER_0_27_325
*827 FILLER_0_27_39
*828 FILLER_0_27_51
*829 FILLER_0_27_55
*830 FILLER_0_27_57
*831 FILLER_0_27_69
*832 FILLER_0_27_81
*833 FILLER_0_27_93
*834 FILLER_0_28_109
*835 FILLER_0_28_121
*836 FILLER_0_28_133
*837 FILLER_0_28_139
*838 FILLER_0_28_141
*839 FILLER_0_28_15
*840 FILLER_0_28_153
*841 FILLER_0_28_165
*842 FILLER_0_28_177
*843 FILLER_0_28_189
*844 FILLER_0_28_195
*845 FILLER_0_28_197
*846 FILLER_0_28_209
*847 FILLER_0_28_221
*848 FILLER_0_28_233
*849 FILLER_0_28_245
*850 FILLER_0_28_251
*851 FILLER_0_28_253
*852 FILLER_0_28_265
*853 FILLER_0_28_27
*854 FILLER_0_28_277
*855 FILLER_0_28_289
*856 FILLER_0_28_29
*857 FILLER_0_28_3
*858 FILLER_0_28_301
*859 FILLER_0_28_307
*860 FILLER_0_28_309
*861 FILLER_0_28_321
*862 FILLER_0_28_41
*863 FILLER_0_28_53
*864 FILLER_0_28_65
*865 FILLER_0_28_77
*866 FILLER_0_28_83
*867 FILLER_0_28_85
*868 FILLER_0_28_97
*869 FILLER_0_29_105
*870 FILLER_0_29_111
*871 FILLER_0_29_113
*872 FILLER_0_29_125
*873 FILLER_0_29_137
*874 FILLER_0_29_149
*875 FILLER_0_29_15
*876 FILLER_0_29_161
*877 FILLER_0_29_167
*878 FILLER_0_29_169
*879 FILLER_0_29_181
*880 FILLER_0_29_193
*881 FILLER_0_29_205
*882 FILLER_0_29_217
*883 FILLER_0_29_223
*884 FILLER_0_29_225
*885 FILLER_0_29_237
*886 FILLER_0_29_249
*887 FILLER_0_29_261
*888 FILLER_0_29_27
*889 FILLER_0_29_273
*890 FILLER_0_29_279
*891 FILLER_0_29_281
*892 FILLER_0_29_293
*893 FILLER_0_29_3
*894 FILLER_0_29_305
*895 FILLER_0_29_317
*896 FILLER_0_29_325
*897 FILLER_0_29_39
*898 FILLER_0_29_51
*899 FILLER_0_29_55
*900 FILLER_0_29_57
*901 FILLER_0_29_69
*902 FILLER_0_29_81
*903 FILLER_0_29_93
*904 FILLER_0_2_138
*905 FILLER_0_2_141
*906 FILLER_0_2_147
*907 FILLER_0_2_15
*908 FILLER_0_2_157
*909 FILLER_0_2_169
*910 FILLER_0_2_181
*911 FILLER_0_2_193
*912 FILLER_0_2_197
*913 FILLER_0_2_209
*914 FILLER_0_2_221
*915 FILLER_0_2_233
*916 FILLER_0_2_245
*917 FILLER_0_2_251
*918 FILLER_0_2_253
*919 FILLER_0_2_265
*920 FILLER_0_2_27
*921 FILLER_0_2_277
*922 FILLER_0_2_289
*923 FILLER_0_2_29
*924 FILLER_0_2_3
*925 FILLER_0_2_301
*926 FILLER_0_2_307
*927 FILLER_0_2_309
*928 FILLER_0_2_321
*929 FILLER_0_2_41
*930 FILLER_0_2_53
*931 FILLER_0_2_65
*932 FILLER_0_2_77
*933 FILLER_0_2_83
*934 FILLER_0_2_85
*935 FILLER_0_2_93
*936 FILLER_0_30_109
*937 FILLER_0_30_121
*938 FILLER_0_30_133
*939 FILLER_0_30_139
*940 FILLER_0_30_141
*941 FILLER_0_30_15
*942 FILLER_0_30_153
*943 FILLER_0_30_165
*944 FILLER_0_30_177
*945 FILLER_0_30_189
*946 FILLER_0_30_195
*947 FILLER_0_30_197
*948 FILLER_0_30_209
*949 FILLER_0_30_221
*950 FILLER_0_30_233
*951 FILLER_0_30_245
*952 FILLER_0_30_251
*953 FILLER_0_30_253
*954 FILLER_0_30_265
*955 FILLER_0_30_27
*956 FILLER_0_30_277
*957 FILLER_0_30_289
*958 FILLER_0_30_29
*959 FILLER_0_30_3
*960 FILLER_0_30_301
*961 FILLER_0_30_307
*962 FILLER_0_30_309
*963 FILLER_0_30_321
*964 FILLER_0_30_41
*965 FILLER_0_30_53
*966 FILLER_0_30_65
*967 FILLER_0_30_77
*968 FILLER_0_30_83
*969 FILLER_0_30_85
*970 FILLER_0_30_97
*971 FILLER_0_31_105
*972 FILLER_0_31_111
*973 FILLER_0_31_113
*974 FILLER_0_31_125
*975 FILLER_0_31_137
*976 FILLER_0_31_149
*977 FILLER_0_31_15
*978 FILLER_0_31_161
*979 FILLER_0_31_167
*980 FILLER_0_31_169
*981 FILLER_0_31_181
*982 FILLER_0_31_193
*983 FILLER_0_31_205
*984 FILLER_0_31_217
*985 FILLER_0_31_223
*986 FILLER_0_31_225
*987 FILLER_0_31_237
*988 FILLER_0_31_249
*989 FILLER_0_31_261
*990 FILLER_0_31_27
*991 FILLER_0_31_273
*992 FILLER_0_31_279
*993 FILLER_0_31_281
*994 FILLER_0_31_293
*995 FILLER_0_31_3
*996 FILLER_0_31_305
*997 FILLER_0_31_317
*998 FILLER_0_31_325
*999 FILLER_0_31_39
*1000 FILLER_0_31_51
*1001 FILLER_0_31_55
*1002 FILLER_0_31_57
*1003 FILLER_0_31_69
*1004 FILLER_0_31_81
*1005 FILLER_0_31_93
*1006 FILLER_0_32_109
*1007 FILLER_0_32_121
*1008 FILLER_0_32_133
*1009 FILLER_0_32_139
*1010 FILLER_0_32_141
*1011 FILLER_0_32_15
*1012 FILLER_0_32_153
*1013 FILLER_0_32_165
*1014 FILLER_0_32_177
*1015 FILLER_0_32_189
*1016 FILLER_0_32_195
*1017 FILLER_0_32_197
*1018 FILLER_0_32_209
*1019 FILLER_0_32_221
*1020 FILLER_0_32_233
*1021 FILLER_0_32_245
*1022 FILLER_0_32_251
*1023 FILLER_0_32_253
*1024 FILLER_0_32_265
*1025 FILLER_0_32_27
*1026 FILLER_0_32_277
*1027 FILLER_0_32_289
*1028 FILLER_0_32_29
*1029 FILLER_0_32_3
*1030 FILLER_0_32_301
*1031 FILLER_0_32_307
*1032 FILLER_0_32_309
*1033 FILLER_0_32_321
*1034 FILLER_0_32_41
*1035 FILLER_0_32_53
*1036 FILLER_0_32_65
*1037 FILLER_0_32_77
*1038 FILLER_0_32_83
*1039 FILLER_0_32_85
*1040 FILLER_0_32_97
*1041 FILLER_0_33_105
*1042 FILLER_0_33_111
*1043 FILLER_0_33_113
*1044 FILLER_0_33_125
*1045 FILLER_0_33_137
*1046 FILLER_0_33_149
*1047 FILLER_0_33_15
*1048 FILLER_0_33_161
*1049 FILLER_0_33_167
*1050 FILLER_0_33_169
*1051 FILLER_0_33_181
*1052 FILLER_0_33_193
*1053 FILLER_0_33_205
*1054 FILLER_0_33_217
*1055 FILLER_0_33_223
*1056 FILLER_0_33_225
*1057 FILLER_0_33_237
*1058 FILLER_0_33_249
*1059 FILLER_0_33_261
*1060 FILLER_0_33_27
*1061 FILLER_0_33_273
*1062 FILLER_0_33_279
*1063 FILLER_0_33_281
*1064 FILLER_0_33_293
*1065 FILLER_0_33_3
*1066 FILLER_0_33_305
*1067 FILLER_0_33_317
*1068 FILLER_0_33_325
*1069 FILLER_0_33_39
*1070 FILLER_0_33_51
*1071 FILLER_0_33_55
*1072 FILLER_0_33_57
*1073 FILLER_0_33_69
*1074 FILLER_0_33_81
*1075 FILLER_0_33_93
*1076 FILLER_0_34_109
*1077 FILLER_0_34_121
*1078 FILLER_0_34_133
*1079 FILLER_0_34_139
*1080 FILLER_0_34_15
*1081 FILLER_0_34_163
*1082 FILLER_0_34_172
*1083 FILLER_0_34_184
*1084 FILLER_0_34_192
*1085 FILLER_0_34_197
*1086 FILLER_0_34_209
*1087 FILLER_0_34_221
*1088 FILLER_0_34_233
*1089 FILLER_0_34_245
*1090 FILLER_0_34_251
*1091 FILLER_0_34_253
*1092 FILLER_0_34_265
*1093 FILLER_0_34_27
*1094 FILLER_0_34_277
*1095 FILLER_0_34_289
*1096 FILLER_0_34_29
*1097 FILLER_0_34_3
*1098 FILLER_0_34_301
*1099 FILLER_0_34_307
*1100 FILLER_0_34_309
*1101 FILLER_0_34_321
*1102 FILLER_0_34_41
*1103 FILLER_0_34_53
*1104 FILLER_0_34_65
*1105 FILLER_0_34_77
*1106 FILLER_0_34_83
*1107 FILLER_0_34_85
*1108 FILLER_0_34_97
*1109 FILLER_0_35_105
*1110 FILLER_0_35_111
*1111 FILLER_0_35_113
*1112 FILLER_0_35_125
*1113 FILLER_0_35_137
*1114 FILLER_0_35_15
*1115 FILLER_0_35_155
*1116 FILLER_0_35_163
*1117 FILLER_0_35_186
*1118 FILLER_0_35_198
*1119 FILLER_0_35_210
*1120 FILLER_0_35_222
*1121 FILLER_0_35_225
*1122 FILLER_0_35_237
*1123 FILLER_0_35_249
*1124 FILLER_0_35_261
*1125 FILLER_0_35_27
*1126 FILLER_0_35_273
*1127 FILLER_0_35_279
*1128 FILLER_0_35_281
*1129 FILLER_0_35_293
*1130 FILLER_0_35_3
*1131 FILLER_0_35_305
*1132 FILLER_0_35_317
*1133 FILLER_0_35_325
*1134 FILLER_0_35_39
*1135 FILLER_0_35_51
*1136 FILLER_0_35_55
*1137 FILLER_0_35_57
*1138 FILLER_0_35_69
*1139 FILLER_0_35_81
*1140 FILLER_0_35_93
*1141 FILLER_0_36_109
*1142 FILLER_0_36_121
*1143 FILLER_0_36_133
*1144 FILLER_0_36_141
*1145 FILLER_0_36_15
*1146 FILLER_0_36_161
*1147 FILLER_0_36_166
*1148 FILLER_0_36_195
*1149 FILLER_0_36_197
*1150 FILLER_0_36_209
*1151 FILLER_0_36_221
*1152 FILLER_0_36_233
*1153 FILLER_0_36_245
*1154 FILLER_0_36_251
*1155 FILLER_0_36_253
*1156 FILLER_0_36_265
*1157 FILLER_0_36_27
*1158 FILLER_0_36_277
*1159 FILLER_0_36_289
*1160 FILLER_0_36_29
*1161 FILLER_0_36_3
*1162 FILLER_0_36_301
*1163 FILLER_0_36_307
*1164 FILLER_0_36_309
*1165 FILLER_0_36_321
*1166 FILLER_0_36_41
*1167 FILLER_0_36_53
*1168 FILLER_0_36_65
*1169 FILLER_0_36_77
*1170 FILLER_0_36_83
*1171 FILLER_0_36_85
*1172 FILLER_0_36_97
*1173 FILLER_0_37_105
*1174 FILLER_0_37_111
*1175 FILLER_0_37_113
*1176 FILLER_0_37_125
*1177 FILLER_0_37_137
*1178 FILLER_0_37_15
*1179 FILLER_0_37_158
*1180 FILLER_0_37_195
*1181 FILLER_0_37_207
*1182 FILLER_0_37_219
*1183 FILLER_0_37_223
*1184 FILLER_0_37_225
*1185 FILLER_0_37_237
*1186 FILLER_0_37_249
*1187 FILLER_0_37_261
*1188 FILLER_0_37_27
*1189 FILLER_0_37_273
*1190 FILLER_0_37_279
*1191 FILLER_0_37_281
*1192 FILLER_0_37_293
*1193 FILLER_0_37_3
*1194 FILLER_0_37_305
*1195 FILLER_0_37_317
*1196 FILLER_0_37_325
*1197 FILLER_0_37_39
*1198 FILLER_0_37_51
*1199 FILLER_0_37_55
*1200 FILLER_0_37_57
*1201 FILLER_0_37_69
*1202 FILLER_0_37_81
*1203 FILLER_0_37_93
*1204 FILLER_0_38_100
*1205 FILLER_0_38_113
*1206 FILLER_0_38_125
*1207 FILLER_0_38_141
*1208 FILLER_0_38_147
*1209 FILLER_0_38_15
*1210 FILLER_0_38_152
*1211 FILLER_0_38_164
*1212 FILLER_0_38_178
*1213 FILLER_0_38_197
*1214 FILLER_0_38_209
*1215 FILLER_0_38_221
*1216 FILLER_0_38_225
*1217 FILLER_0_38_237
*1218 FILLER_0_38_249
*1219 FILLER_0_38_253
*1220 FILLER_0_38_261
*1221 FILLER_0_38_267
*1222 FILLER_0_38_27
*1223 FILLER_0_38_275
*1224 FILLER_0_38_279
*1225 FILLER_0_38_287
*1226 FILLER_0_38_29
*1227 FILLER_0_38_299
*1228 FILLER_0_38_3
*1229 FILLER_0_38_307
*1230 FILLER_0_38_309
*1231 FILLER_0_38_321
*1232 FILLER_0_38_44
*1233 FILLER_0_38_50
*1234 FILLER_0_38_57
*1235 FILLER_0_38_62
*1236 FILLER_0_38_68
*1237 FILLER_0_38_74
*1238 FILLER_0_38_80
*1239 FILLER_0_38_88
*1240 FILLER_0_3_104
*1241 FILLER_0_3_111
*1242 FILLER_0_3_113
*1243 FILLER_0_3_121
*1244 FILLER_0_3_129
*1245 FILLER_0_3_141
*1246 FILLER_0_3_15
*1247 FILLER_0_3_154
*1248 FILLER_0_3_166
*1249 FILLER_0_3_169
*1250 FILLER_0_3_179
*1251 FILLER_0_3_191
*1252 FILLER_0_3_203
*1253 FILLER_0_3_215
*1254 FILLER_0_3_223
*1255 FILLER_0_3_225
*1256 FILLER_0_3_237
*1257 FILLER_0_3_249
*1258 FILLER_0_3_261
*1259 FILLER_0_3_27
*1260 FILLER_0_3_273
*1261 FILLER_0_3_279
*1262 FILLER_0_3_281
*1263 FILLER_0_3_293
*1264 FILLER_0_3_3
*1265 FILLER_0_3_305
*1266 FILLER_0_3_317
*1267 FILLER_0_3_325
*1268 FILLER_0_3_39
*1269 FILLER_0_3_51
*1270 FILLER_0_3_55
*1271 FILLER_0_3_57
*1272 FILLER_0_3_69
*1273 FILLER_0_3_81
*1274 FILLER_0_3_93
*1275 FILLER_0_3_97
*1276 FILLER_0_4_105
*1277 FILLER_0_4_120
*1278 FILLER_0_4_128
*1279 FILLER_0_4_141
*1280 FILLER_0_4_15
*1281 FILLER_0_4_153
*1282 FILLER_0_4_165
*1283 FILLER_0_4_177
*1284 FILLER_0_4_189
*1285 FILLER_0_4_195
*1286 FILLER_0_4_197
*1287 FILLER_0_4_209
*1288 FILLER_0_4_221
*1289 FILLER_0_4_233
*1290 FILLER_0_4_245
*1291 FILLER_0_4_251
*1292 FILLER_0_4_253
*1293 FILLER_0_4_265
*1294 FILLER_0_4_27
*1295 FILLER_0_4_277
*1296 FILLER_0_4_289
*1297 FILLER_0_4_29
*1298 FILLER_0_4_3
*1299 FILLER_0_4_301
*1300 FILLER_0_4_307
*1301 FILLER_0_4_309
*1302 FILLER_0_4_321
*1303 FILLER_0_4_41
*1304 FILLER_0_4_53
*1305 FILLER_0_4_65
*1306 FILLER_0_4_77
*1307 FILLER_0_4_83
*1308 FILLER_0_4_85
*1309 FILLER_0_4_97
*1310 FILLER_0_5_105
*1311 FILLER_0_5_111
*1312 FILLER_0_5_113
*1313 FILLER_0_5_125
*1314 FILLER_0_5_137
*1315 FILLER_0_5_149
*1316 FILLER_0_5_15
*1317 FILLER_0_5_161
*1318 FILLER_0_5_167
*1319 FILLER_0_5_169
*1320 FILLER_0_5_181
*1321 FILLER_0_5_193
*1322 FILLER_0_5_205
*1323 FILLER_0_5_217
*1324 FILLER_0_5_223
*1325 FILLER_0_5_225
*1326 FILLER_0_5_237
*1327 FILLER_0_5_249
*1328 FILLER_0_5_261
*1329 FILLER_0_5_27
*1330 FILLER_0_5_273
*1331 FILLER_0_5_279
*1332 FILLER_0_5_281
*1333 FILLER_0_5_293
*1334 FILLER_0_5_3
*1335 FILLER_0_5_305
*1336 FILLER_0_5_317
*1337 FILLER_0_5_325
*1338 FILLER_0_5_39
*1339 FILLER_0_5_51
*1340 FILLER_0_5_55
*1341 FILLER_0_5_57
*1342 FILLER_0_5_69
*1343 FILLER_0_5_81
*1344 FILLER_0_5_93
*1345 FILLER_0_6_109
*1346 FILLER_0_6_121
*1347 FILLER_0_6_133
*1348 FILLER_0_6_139
*1349 FILLER_0_6_141
*1350 FILLER_0_6_15
*1351 FILLER_0_6_153
*1352 FILLER_0_6_165
*1353 FILLER_0_6_177
*1354 FILLER_0_6_189
*1355 FILLER_0_6_195
*1356 FILLER_0_6_197
*1357 FILLER_0_6_209
*1358 FILLER_0_6_221
*1359 FILLER_0_6_233
*1360 FILLER_0_6_245
*1361 FILLER_0_6_251
*1362 FILLER_0_6_253
*1363 FILLER_0_6_265
*1364 FILLER_0_6_27
*1365 FILLER_0_6_277
*1366 FILLER_0_6_289
*1367 FILLER_0_6_29
*1368 FILLER_0_6_3
*1369 FILLER_0_6_301
*1370 FILLER_0_6_307
*1371 FILLER_0_6_309
*1372 FILLER_0_6_321
*1373 FILLER_0_6_41
*1374 FILLER_0_6_53
*1375 FILLER_0_6_65
*1376 FILLER_0_6_77
*1377 FILLER_0_6_83
*1378 FILLER_0_6_85
*1379 FILLER_0_6_97
*1380 FILLER_0_7_105
*1381 FILLER_0_7_111
*1382 FILLER_0_7_113
*1383 FILLER_0_7_125
*1384 FILLER_0_7_137
*1385 FILLER_0_7_149
*1386 FILLER_0_7_15
*1387 FILLER_0_7_161
*1388 FILLER_0_7_167
*1389 FILLER_0_7_169
*1390 FILLER_0_7_181
*1391 FILLER_0_7_193
*1392 FILLER_0_7_205
*1393 FILLER_0_7_217
*1394 FILLER_0_7_223
*1395 FILLER_0_7_225
*1396 FILLER_0_7_237
*1397 FILLER_0_7_249
*1398 FILLER_0_7_261
*1399 FILLER_0_7_27
*1400 FILLER_0_7_273
*1401 FILLER_0_7_279
*1402 FILLER_0_7_281
*1403 FILLER_0_7_293
*1404 FILLER_0_7_3
*1405 FILLER_0_7_305
*1406 FILLER_0_7_317
*1407 FILLER_0_7_325
*1408 FILLER_0_7_39
*1409 FILLER_0_7_51
*1410 FILLER_0_7_55
*1411 FILLER_0_7_57
*1412 FILLER_0_7_69
*1413 FILLER_0_7_81
*1414 FILLER_0_7_93
*1415 FILLER_0_8_109
*1416 FILLER_0_8_121
*1417 FILLER_0_8_133
*1418 FILLER_0_8_139
*1419 FILLER_0_8_141
*1420 FILLER_0_8_15
*1421 FILLER_0_8_153
*1422 FILLER_0_8_165
*1423 FILLER_0_8_177
*1424 FILLER_0_8_189
*1425 FILLER_0_8_195
*1426 FILLER_0_8_197
*1427 FILLER_0_8_209
*1428 FILLER_0_8_221
*1429 FILLER_0_8_233
*1430 FILLER_0_8_245
*1431 FILLER_0_8_251
*1432 FILLER_0_8_253
*1433 FILLER_0_8_265
*1434 FILLER_0_8_27
*1435 FILLER_0_8_277
*1436 FILLER_0_8_289
*1437 FILLER_0_8_29
*1438 FILLER_0_8_3
*1439 FILLER_0_8_301
*1440 FILLER_0_8_307
*1441 FILLER_0_8_309
*1442 FILLER_0_8_321
*1443 FILLER_0_8_41
*1444 FILLER_0_8_53
*1445 FILLER_0_8_65
*1446 FILLER_0_8_77
*1447 FILLER_0_8_83
*1448 FILLER_0_8_85
*1449 FILLER_0_8_97
*1450 FILLER_0_9_105
*1451 FILLER_0_9_111
*1452 FILLER_0_9_113
*1453 FILLER_0_9_125
*1454 FILLER_0_9_137
*1455 FILLER_0_9_149
*1456 FILLER_0_9_15
*1457 FILLER_0_9_161
*1458 FILLER_0_9_167
*1459 FILLER_0_9_169
*1460 FILLER_0_9_181
*1461 FILLER_0_9_193
*1462 FILLER_0_9_205
*1463 FILLER_0_9_217
*1464 FILLER_0_9_223
*1465 FILLER_0_9_225
*1466 FILLER_0_9_237
*1467 FILLER_0_9_249
*1468 FILLER_0_9_261
*1469 FILLER_0_9_27
*1470 FILLER_0_9_273
*1471 FILLER_0_9_279
*1472 FILLER_0_9_281
*1473 FILLER_0_9_293
*1474 FILLER_0_9_3
*1475 FILLER_0_9_305
*1476 FILLER_0_9_317
*1477 FILLER_0_9_325
*1478 FILLER_0_9_39
*1479 FILLER_0_9_51
*1480 FILLER_0_9_55
*1481 FILLER_0_9_57
*1482 FILLER_0_9_69
*1483 FILLER_0_9_81
*1484 FILLER_0_9_93
*1485 PHY_EDGE_ROW_0_Left_39
*1486 PHY_EDGE_ROW_0_Right_0
*1487 PHY_EDGE_ROW_10_Left_49
*1488 PHY_EDGE_ROW_10_Right_10